*SPEF "ieee 1481-1999"
*DESIGN "bka"
*DATE "11:57:59 Thursday October 23, 2025"
*VENDOR "The OpenROAD Project"
*PROGRAM "OpenROAD"
*VERSION "b16bda7e82721d10566ff7e2b68f1ff0be9f9e38"
*DESIGN_FLOW "NAME_SCOPE LOCAL" "PIN_CAP NONE"
*DIVIDER /
*DELIMITER :
*BUS_DELIMITER []
*T_UNIT 1 NS
*C_UNIT 1 PF
*R_UNIT 1 OHM
*L_UNIT 1 HENRY

*NAME_MAP
*1 A[0]
*2 A[10]
*3 A[11]
*4 A[12]
*5 A[13]
*6 A[14]
*7 A[15]
*8 A[1]
*9 A[2]
*10 A[3]
*11 A[4]
*12 A[5]
*13 A[6]
*14 A[7]
*15 A[8]
*16 A[9]
*17 B[0]
*18 B[10]
*19 B[11]
*20 B[12]
*21 B[13]
*22 B[14]
*23 B[15]
*24 B[1]
*25 B[2]
*26 B[3]
*27 B[4]
*28 B[5]
*29 B[6]
*30 B[7]
*31 B[8]
*32 B[9]
*33 CLK
*34 Cin
*35 Cout
*36 S[0]
*37 S[10]
*38 S[11]
*39 S[12]
*40 S[13]
*41 S[14]
*42 S[15]
*43 S[1]
*44 S[2]
*45 S[3]
*46 S[4]
*47 S[5]
*48 S[6]
*49 S[7]
*50 S[8]
*51 S[9]
*54 _000_
*55 _001_
*56 _002_
*57 _003_
*58 _004_
*59 _005_
*60 _006_
*61 _007_
*62 _008_
*63 _009_
*64 _010_
*65 _011_
*66 _012_
*67 _013_
*68 _014_
*69 _015_
*70 _016_
*71 _017_
*72 _018_
*73 _019_
*74 _020_
*75 _021_
*76 _022_
*77 _023_
*78 _024_
*79 _025_
*80 _026_
*81 _027_
*82 _028_
*83 _029_
*84 _030_
*85 _031_
*86 _032_
*87 _033_
*88 _034_
*89 _035_
*90 _036_
*91 _037_
*92 _038_
*93 _039_
*94 _040_
*95 _041_
*96 _042_
*97 _043_
*98 _044_
*99 _045_
*100 _046_
*101 _047_
*102 _048_
*103 _049_
*104 _050_
*105 _051_
*106 _052_
*107 _053_
*108 _054_
*109 _055_
*110 _056_
*111 _057_
*112 _058_
*113 _059_
*114 _060_
*115 _061_
*116 _062_
*117 _063_
*118 _064_
*119 _065_
*120 _066_
*121 _067_
*122 _068_
*123 _069_
*124 _070_
*125 _071_
*126 _072_
*127 _073_
*128 _074_
*129 _075_
*130 _076_
*131 _077_
*132 _078_
*133 _079_
*134 _080_
*135 _081_
*136 _082_
*137 _083_
*138 _084_
*139 _085_
*140 _086_
*141 clknet_0_CLK
*142 clknet_2_0__leaf_CLK
*143 clknet_2_1__leaf_CLK
*144 clknet_2_2__leaf_CLK
*145 clknet_2_3__leaf_CLK
*146 net1
*147 net10
*148 net11
*149 net12
*150 net13
*151 net14
*152 net15
*153 net16
*154 net17
*155 net18
*156 net19
*157 net2
*158 net20
*159 net21
*160 net22
*161 net23
*162 net24
*163 net25
*164 net26
*165 net27
*166 net28
*167 net29
*168 net3
*169 net30
*170 net31
*171 net32
*172 net33
*173 net34
*174 net35
*175 net36
*176 net37
*177 net38
*178 net39
*179 net4
*180 net40
*181 net41
*182 net42
*183 net43
*184 net44
*185 net45
*186 net46
*187 net47
*188 net48
*189 net49
*190 net5
*191 net50
*192 net6
*193 net7
*194 net8
*195 net9
*196 x1\.A
*197 x1\.B
*198 x10\.A
*199 x10\.B
*200 x11\.A
*201 x11\.B
*202 x12\.A
*203 x12\.B
*204 x2\.A
*205 x2\.B
*206 x3\.A
*207 x3\.B
*208 x33\.A
*209 x33\.B
*210 x34\.A
*211 x34\.B
*212 x35\.A
*213 x35\.B
*214 x36\.A
*215 x36\.B
*216 x4\.A
*217 x4\.B
*218 x49\.G
*219 x49\.G1
*220 x5\.A
*221 x5\.B
*222 x6\.A
*223 x6\.B
*224 x65\.Si
*225 x66\.Si
*226 x67\.Si
*227 x68\.Si
*228 x69\.Si
*229 x7\.A
*230 x7\.B
*231 x70\.Si
*232 x71\.Si
*233 x72\.Si
*234 x73\.Si
*235 x74\.Si
*236 x75\.Si
*237 x76\.Si
*238 x77\.Si
*239 x78\.Si
*240 x79\.Si
*241 x8\.A
*242 x8\.B
*243 x80\.Si
*244 x9\.A
*245 x9\.B
*246 FILLER_0_0_103
*247 FILLER_0_0_107
*248 FILLER_0_0_111
*249 FILLER_0_0_113
*250 FILLER_0_0_117
*251 FILLER_0_0_123
*252 FILLER_0_0_127
*253 FILLER_0_0_23
*254 FILLER_0_0_27
*255 FILLER_0_0_29
*256 FILLER_0_0_3
*257 FILLER_0_0_33
*258 FILLER_0_0_37
*259 FILLER_0_0_43
*260 FILLER_0_0_47
*261 FILLER_0_0_55
*262 FILLER_0_0_60
*263 FILLER_0_0_67
*264 FILLER_0_0_73
*265 FILLER_0_0_77
*266 FILLER_0_0_83
*267 FILLER_0_0_88
*268 FILLER_0_0_97
*269 FILLER_0_10_109
*270 FILLER_0_10_121
*271 FILLER_0_10_133
*272 FILLER_0_10_20
*273 FILLER_0_10_29
*274 FILLER_0_10_3
*275 FILLER_0_10_37
*276 FILLER_0_10_45
*277 FILLER_0_10_85
*278 FILLER_0_10_97
*279 FILLER_0_11_121
*280 FILLER_0_11_133
*281 FILLER_0_11_18
*282 FILLER_0_11_30
*283 FILLER_0_11_38
*284 FILLER_0_11_49
*285 FILLER_0_11_55
*286 FILLER_0_11_6
*287 FILLER_0_11_89
*288 FILLER_0_11_95
*289 FILLER_0_12_122
*290 FILLER_0_12_126
*291 FILLER_0_12_134
*292 FILLER_0_12_18
*293 FILLER_0_12_26
*294 FILLER_0_12_45
*295 FILLER_0_12_6
*296 FILLER_0_12_60
*297 FILLER_0_12_68
*298 FILLER_0_12_74
*299 FILLER_0_12_80
*300 FILLER_0_12_85
*301 FILLER_0_12_96
*302 FILLER_0_13_101
*303 FILLER_0_13_109
*304 FILLER_0_13_113
*305 FILLER_0_13_133
*306 FILLER_0_13_23
*307 FILLER_0_13_35
*308 FILLER_0_13_41
*309 FILLER_0_13_47
*310 FILLER_0_13_55
*311 FILLER_0_13_57
*312 FILLER_0_13_6
*313 FILLER_0_13_69
*314 FILLER_0_13_77
*315 FILLER_0_13_85
*316 FILLER_0_13_93
*317 FILLER_0_14_117
*318 FILLER_0_14_128
*319 FILLER_0_14_134
*320 FILLER_0_14_24
*321 FILLER_0_14_29
*322 FILLER_0_14_46
*323 FILLER_0_14_6
*324 FILLER_0_14_65
*325 FILLER_0_14_71
*326 FILLER_0_15_111
*327 FILLER_0_15_124
*328 FILLER_0_15_132
*329 FILLER_0_15_35
*330 FILLER_0_15_47
*331 FILLER_0_15_70
*332 FILLER_0_15_92
*333 FILLER_0_16_109
*334 FILLER_0_16_121
*335 FILLER_0_16_133
*336 FILLER_0_16_20
*337 FILLER_0_16_29
*338 FILLER_0_16_3
*339 FILLER_0_16_37
*340 FILLER_0_16_63
*341 FILLER_0_16_67
*342 FILLER_0_16_73
*343 FILLER_0_16_85
*344 FILLER_0_16_91
*345 FILLER_0_16_99
*346 FILLER_0_17_105
*347 FILLER_0_17_111
*348 FILLER_0_17_113
*349 FILLER_0_17_118
*350 FILLER_0_17_133
*351 FILLER_0_17_18
*352 FILLER_0_17_30
*353 FILLER_0_17_42
*354 FILLER_0_17_54
*355 FILLER_0_17_57
*356 FILLER_0_17_6
*357 FILLER_0_17_69
*358 FILLER_0_17_81
*359 FILLER_0_17_93
*360 FILLER_0_18_103
*361 FILLER_0_18_112
*362 FILLER_0_18_134
*363 FILLER_0_18_18
*364 FILLER_0_18_26
*365 FILLER_0_18_45
*366 FILLER_0_18_6
*367 FILLER_0_18_67
*368 FILLER_0_18_79
*369 FILLER_0_18_83
*370 FILLER_0_18_85
*371 FILLER_0_18_97
*372 FILLER_0_19_111
*373 FILLER_0_19_113
*374 FILLER_0_19_133
*375 FILLER_0_19_20
*376 FILLER_0_19_3
*377 FILLER_0_19_54
*378 FILLER_0_19_73
*379 FILLER_0_19_77
*380 FILLER_0_1_102
*381 FILLER_0_1_110
*382 FILLER_0_1_113
*383 FILLER_0_1_133
*384 FILLER_0_1_34
*385 FILLER_0_1_57
*386 FILLER_0_1_65
*387 FILLER_0_1_82
*388 FILLER_0_20_101
*389 FILLER_0_20_134
*390 FILLER_0_20_22
*391 FILLER_0_20_29
*392 FILLER_0_20_35
*393 FILLER_0_21_104
*394 FILLER_0_21_113
*395 FILLER_0_21_125
*396 FILLER_0_21_131
*397 FILLER_0_21_20
*398 FILLER_0_21_3
*399 FILLER_0_21_32
*400 FILLER_0_21_44
*401 FILLER_0_21_73
*402 FILLER_0_21_85
*403 FILLER_0_22_103
*404 FILLER_0_22_107
*405 FILLER_0_22_111
*406 FILLER_0_22_113
*407 FILLER_0_22_117
*408 FILLER_0_22_12
*409 FILLER_0_22_123
*410 FILLER_0_22_127
*411 FILLER_0_22_23
*412 FILLER_0_22_27
*413 FILLER_0_22_29
*414 FILLER_0_22_33
*415 FILLER_0_22_37
*416 FILLER_0_22_43
*417 FILLER_0_22_47
*418 FILLER_0_22_55
*419 FILLER_0_22_60
*420 FILLER_0_22_67
*421 FILLER_0_22_73
*422 FILLER_0_22_77
*423 FILLER_0_22_83
*424 FILLER_0_22_88
*425 FILLER_0_22_97
*426 FILLER_0_2_101
*427 FILLER_0_2_121
*428 FILLER_0_2_133
*429 FILLER_0_2_20
*430 FILLER_0_2_3
*431 FILLER_0_2_45
*432 FILLER_0_2_64
*433 FILLER_0_3_100
*434 FILLER_0_3_113
*435 FILLER_0_3_125
*436 FILLER_0_3_133
*437 FILLER_0_3_21
*438 FILLER_0_3_3
*439 FILLER_0_3_33
*440 FILLER_0_3_37
*441 FILLER_0_3_52
*442 FILLER_0_3_57
*443 FILLER_0_3_76
*444 FILLER_0_3_88
*445 FILLER_0_4_111
*446 FILLER_0_4_123
*447 FILLER_0_4_23
*448 FILLER_0_4_27
*449 FILLER_0_4_29
*450 FILLER_0_4_3
*451 FILLER_0_4_71
*452 FILLER_0_4_83
*453 FILLER_0_4_85
*454 FILLER_0_4_91
*455 FILLER_0_4_99
*456 FILLER_0_5_113
*457 FILLER_0_5_133
*458 FILLER_0_5_18
*459 FILLER_0_5_30
*460 FILLER_0_5_54
*461 FILLER_0_5_57
*462 FILLER_0_5_6
*463 FILLER_0_5_69
*464 FILLER_0_5_81
*465 FILLER_0_5_89
*466 FILLER_0_6_109
*467 FILLER_0_6_121
*468 FILLER_0_6_133
*469 FILLER_0_6_17
*470 FILLER_0_6_25
*471 FILLER_0_6_29
*472 FILLER_0_6_33
*473 FILLER_0_6_37
*474 FILLER_0_6_44
*475 FILLER_0_6_56
*476 FILLER_0_6_6
*477 FILLER_0_6_60
*478 FILLER_0_6_77
*479 FILLER_0_6_83
*480 FILLER_0_6_85
*481 FILLER_0_6_97
*482 FILLER_0_7_113
*483 FILLER_0_7_125
*484 FILLER_0_7_133
*485 FILLER_0_7_32
*486 FILLER_0_7_50
*487 FILLER_0_7_57
*488 FILLER_0_7_69
*489 FILLER_0_7_80
*490 FILLER_0_7_92
*491 FILLER_0_8_102
*492 FILLER_0_8_114
*493 FILLER_0_8_133
*494 FILLER_0_8_3
*495 FILLER_0_8_32
*496 FILLER_0_8_51
*497 FILLER_0_8_63
*498 FILLER_0_8_67
*499 FILLER_0_8_90
*500 FILLER_0_9_102
*501 FILLER_0_9_110
*502 FILLER_0_9_113
*503 FILLER_0_9_133
*504 FILLER_0_9_26
*505 FILLER_0_9_3
*506 FILLER_0_9_64
*507 FILLER_0_9_90
*508 PHY_EDGE_ROW_0_Left_23
*509 PHY_EDGE_ROW_0_Right_0
*510 PHY_EDGE_ROW_10_Left_33
*511 PHY_EDGE_ROW_10_Right_10
*512 PHY_EDGE_ROW_11_Left_34
*513 PHY_EDGE_ROW_11_Right_11
*514 PHY_EDGE_ROW_12_Left_35
*515 PHY_EDGE_ROW_12_Right_12
*516 PHY_EDGE_ROW_13_Left_36
*517 PHY_EDGE_ROW_13_Right_13
*518 PHY_EDGE_ROW_14_Left_37
*519 PHY_EDGE_ROW_14_Right_14
*520 PHY_EDGE_ROW_15_Left_38
*521 PHY_EDGE_ROW_15_Right_15
*522 PHY_EDGE_ROW_16_Left_39
*523 PHY_EDGE_ROW_16_Right_16
*524 PHY_EDGE_ROW_17_Left_40
*525 PHY_EDGE_ROW_17_Right_17
*526 PHY_EDGE_ROW_18_Left_41
*527 PHY_EDGE_ROW_18_Right_18
*528 PHY_EDGE_ROW_19_Left_42
*529 PHY_EDGE_ROW_19_Right_19
*530 PHY_EDGE_ROW_1_Left_24
*531 PHY_EDGE_ROW_1_Right_1
*532 PHY_EDGE_ROW_20_Left_43
*533 PHY_EDGE_ROW_20_Right_20
*534 PHY_EDGE_ROW_21_Left_44
*535 PHY_EDGE_ROW_21_Right_21
*536 PHY_EDGE_ROW_22_Left_45
*537 PHY_EDGE_ROW_22_Right_22
*538 PHY_EDGE_ROW_2_Left_25
*539 PHY_EDGE_ROW_2_Right_2
*540 PHY_EDGE_ROW_3_Left_26
*541 PHY_EDGE_ROW_3_Right_3
*542 PHY_EDGE_ROW_4_Left_27
*543 PHY_EDGE_ROW_4_Right_4
*544 PHY_EDGE_ROW_5_Left_28
*545 PHY_EDGE_ROW_5_Right_5
*546 PHY_EDGE_ROW_6_Left_29
*547 PHY_EDGE_ROW_6_Right_6
*548 PHY_EDGE_ROW_7_Left_30
*549 PHY_EDGE_ROW_7_Right_7
*550 PHY_EDGE_ROW_8_Left_31
*551 PHY_EDGE_ROW_8_Right_8
*552 PHY_EDGE_ROW_9_Left_32
*553 PHY_EDGE_ROW_9_Right_9
*554 TAP_TAPCELL_ROW_0_46
*555 TAP_TAPCELL_ROW_0_47
*556 TAP_TAPCELL_ROW_0_48
*557 TAP_TAPCELL_ROW_0_49
*558 TAP_TAPCELL_ROW_10_68
*559 TAP_TAPCELL_ROW_10_69
*560 TAP_TAPCELL_ROW_11_70
*561 TAP_TAPCELL_ROW_11_71
*562 TAP_TAPCELL_ROW_12_72
*563 TAP_TAPCELL_ROW_12_73
*564 TAP_TAPCELL_ROW_13_74
*565 TAP_TAPCELL_ROW_13_75
*566 TAP_TAPCELL_ROW_14_76
*567 TAP_TAPCELL_ROW_14_77
*568 TAP_TAPCELL_ROW_15_78
*569 TAP_TAPCELL_ROW_15_79
*570 TAP_TAPCELL_ROW_16_80
*571 TAP_TAPCELL_ROW_16_81
*572 TAP_TAPCELL_ROW_17_82
*573 TAP_TAPCELL_ROW_17_83
*574 TAP_TAPCELL_ROW_18_84
*575 TAP_TAPCELL_ROW_18_85
*576 TAP_TAPCELL_ROW_19_86
*577 TAP_TAPCELL_ROW_19_87
*578 TAP_TAPCELL_ROW_1_50
*579 TAP_TAPCELL_ROW_1_51
*580 TAP_TAPCELL_ROW_20_88
*581 TAP_TAPCELL_ROW_20_89
*582 TAP_TAPCELL_ROW_21_90
*583 TAP_TAPCELL_ROW_21_91
*584 TAP_TAPCELL_ROW_22_92
*585 TAP_TAPCELL_ROW_22_93
*586 TAP_TAPCELL_ROW_22_94
*587 TAP_TAPCELL_ROW_22_95
*588 TAP_TAPCELL_ROW_2_52
*589 TAP_TAPCELL_ROW_2_53
*590 TAP_TAPCELL_ROW_3_54
*591 TAP_TAPCELL_ROW_3_55
*592 TAP_TAPCELL_ROW_4_56
*593 TAP_TAPCELL_ROW_4_57
*594 TAP_TAPCELL_ROW_5_58
*595 TAP_TAPCELL_ROW_5_59
*596 TAP_TAPCELL_ROW_6_60
*597 TAP_TAPCELL_ROW_6_61
*598 TAP_TAPCELL_ROW_7_62
*599 TAP_TAPCELL_ROW_7_63
*600 TAP_TAPCELL_ROW_8_64
*601 TAP_TAPCELL_ROW_8_65
*602 TAP_TAPCELL_ROW_9_66
*603 TAP_TAPCELL_ROW_9_67
*604 _087_
*605 _088_
*606 _089_
*607 _090_
*608 _091_
*609 _092_
*610 _093_
*611 _094_
*612 _095_
*613 _096_
*614 _097_
*615 _098_
*616 _099_
*617 _100_
*618 _101_
*619 _102_
*620 _103_
*621 _104_
*622 _105_
*623 _106_
*624 _107_
*625 _108_
*626 _109_
*627 _110_
*628 _111_
*629 _112_
*630 _113_
*631 _114_
*632 _115_
*633 _116_
*634 _117_
*635 _118_
*636 _119_
*637 _120_
*638 _121_
*639 _122_
*640 _123_
*641 _124_
*642 _125_
*643 _126_
*644 _127_
*645 _128_
*646 _129_
*647 _130_
*648 _131_
*649 _132_
*650 _133_
*651 _134_
*652 _135_
*653 _136_
*654 _137_
*655 _138_
*656 _139_
*657 _140_
*658 _141_
*659 _142_
*660 _143_
*661 _144_
*662 _145_
*663 _146_
*664 _147_
*665 _148_
*666 _149_
*667 _150_
*668 _151_
*669 _152_
*670 _153_
*671 _154_
*672 _155_
*673 _156_
*674 _157_
*675 _158_
*676 _159_
*677 _160_
*678 _161_
*679 _162_
*680 _163_
*681 _164_
*682 _165_
*683 _166_
*684 _167_
*685 _168_
*686 _169_
*687 _170_
*688 _171_
*689 _172_
*690 _173_
*691 _174_
*692 _175_
*693 _176_
*694 _177_
*695 _178_
*696 _179_
*697 _180_
*698 _181_
*699 _182_
*700 _183_
*701 _184_
*702 _185_
*703 _186_
*704 _187_
*705 _188_
*706 _189_
*707 _190_
*708 _191_
*709 _192_
*710 _193_
*711 _194_
*712 _195_
*713 _196_
*714 _197_
*715 _198_
*716 _199_
*717 _200_
*718 _201_
*719 _202_
*720 _203_
*721 _204_
*722 _205_
*723 _206_
*724 _207_
*725 _208_
*726 _209_
*727 _210_
*728 _211_
*729 _212_
*730 _213_
*731 _214_
*732 _215_
*733 _216_
*734 _217_
*735 _218_
*736 _219_
*737 _220_
*738 _221_
*739 _222_
*740 _223_
*741 _224_
*742 _225_
*743 _226_
*744 _227_
*745 _228_
*746 _229_
*747 _230_
*748 _231_
*749 _232_
*750 _233_
*751 _234_
*752 _235_
*753 _236_
*754 _237_
*755 _238_
*756 _239_
*757 _240_
*758 clkbuf_0_CLK
*759 clkbuf_2_0__f_CLK
*760 clkbuf_2_1__f_CLK
*761 clkbuf_2_2__f_CLK
*762 clkbuf_2_3__f_CLK
*763 clkload0
*764 clkload1
*765 clkload2
*766 input1
*767 input10
*768 input11
*769 input12
*770 input13
*771 input14
*772 input15
*773 input16
*774 input17
*775 input18
*776 input19
*777 input2
*778 input20
*779 input21
*780 input22
*781 input23
*782 input24
*783 input25
*784 input26
*785 input27
*786 input28
*787 input29
*788 input3
*789 input30
*790 input31
*791 input32
*792 input33
*793 input4
*794 input5
*795 input6
*796 input7
*797 input8
*798 input9
*799 output34
*800 output35
*801 output36
*802 output37
*803 output38
*804 output39
*805 output40
*806 output41
*807 output42
*808 output43
*809 output44
*810 output45
*811 output46
*812 output47
*813 output48
*814 output49
*815 output50

*PORTS
A[0] I
A[10] I
A[11] I
A[12] I
A[13] I
A[14] I
A[15] I
A[1] I
A[2] I
A[3] I
A[4] I
A[5] I
A[6] I
A[7] I
A[8] I
A[9] I
B[0] I
B[10] I
B[11] I
B[12] I
B[13] I
B[14] I
B[15] I
B[1] I
B[2] I
B[3] I
B[4] I
B[5] I
B[6] I
B[7] I
B[8] I
B[9] I
CLK I
Cin I
Cout O
S[0] O
S[10] O
S[11] O
S[12] O
S[13] O
S[14] O
S[15] O
S[1] O
S[2] O
S[3] O
S[4] O
S[5] O
S[6] O
S[7] O
S[8] O
S[9] O

*D_NET *1 0.0018904
*CONN
*P A[0] I
*I *766:A I *D sky130_fd_sc_hd__clkbuf_1
*CAP
1 A[0] 0.000756794
2 *766:A 0.000756794
3 *766:A Cout 0.000222784
4 *766:A *805:A 0.000154027
*RES
1 A[0] *766:A 30.4607 
*END

*D_NET *2 0.0011134
*CONN
*P A[10] I
*I *777:A I *D sky130_fd_sc_hd__clkbuf_1
*CAP
1 A[10] 0.000531199
2 *777:A 0.000531199
3 *777:A *735:D 5.10008e-05
4 *777:A *773:A 0
*RES
1 A[10] *777:A 24.175 
*END

*D_NET *3 0.00104101
*CONN
*P A[11] I
*I *788:A I *D sky130_fd_sc_hd__clkbuf_1
*CAP
1 A[11] 0.000520507
2 *788:A 0.000520507
3 *788:A *793:A 0
*RES
1 A[11] *788:A 24.175 
*END

*D_NET *4 0.00096063
*CONN
*P A[12] I
*I *793:A I *D sky130_fd_sc_hd__clkbuf_1
*CAP
1 A[12] 0.000480315
2 *793:A 0.000480315
3 *793:A *794:A 0
4 *788:A *793:A 0
*RES
1 A[12] *793:A 23.3536 
*END

*D_NET *5 0.00109869
*CONN
*P A[13] I
*I *794:A I *D sky130_fd_sc_hd__clkbuf_1
*CAP
1 A[13] 0.000535077
2 *794:A 0.000535077
3 *794:A *795:A 0
4 *794:A *190:20 2.85321e-05
5 *793:A *794:A 0
*RES
1 A[13] *794:A 24.175 
*END

*D_NET *6 0.0010274
*CONN
*P A[14] I
*I *795:A I *D sky130_fd_sc_hd__clkbuf_1
*CAP
1 A[14] 0.000475099
2 *795:A 0.000475099
3 *795:A *739:D 2.19684e-05
4 *795:A *796:A 5.52302e-05
5 *794:A *795:A 0
*RES
1 A[14] *795:A 23.3536 
*END

*D_NET *7 0.00157683
*CONN
*P A[15] I
*I *796:A I *D sky130_fd_sc_hd__clkbuf_1
*CAP
1 A[15] 0.00073038
2 *796:A 0.00073038
3 *796:A *739:D 5.71472e-05
4 *796:A *740:D 3.69047e-06
5 *795:A *796:A 5.52302e-05
*RES
1 A[15] *796:A 27.9964 
*END

*D_NET *8 0.00107166
*CONN
*P A[1] I
*I *797:A I *D sky130_fd_sc_hd__clkbuf_1
*CAP
1 A[1] 0.00053583
2 *797:A 0.00053583
3 *797:A Cout 0
4 *797:A *798:A 0
*RES
1 A[1] *797:A 24.175 
*END

*D_NET *9 0.000986632
*CONN
*P A[2] I
*I *798:A I *D sky130_fd_sc_hd__clkbuf_1
*CAP
1 A[2] 0.000493316
2 *798:A 0.000493316
3 *798:A *767:A 0
4 *797:A *798:A 0
*RES
1 A[2] *798:A 23.3536 
*END

*D_NET *10 0.000981054
*CONN
*P A[3] I
*I *767:A I *D sky130_fd_sc_hd__clkbuf_1
*CAP
1 A[3] 0.000489114
2 *767:A 0.000489114
3 *767:A *806:A 2.8266e-06
4 *798:A *767:A 0
*RES
1 A[3] *767:A 23.3536 
*END

*D_NET *11 0.00105386
*CONN
*P A[4] I
*I *768:A I *D sky130_fd_sc_hd__clkbuf_1
*CAP
1 A[4] 0.000526932
2 *768:A 0.000526932
3 *768:A *769:A 0
*RES
1 A[4] *768:A 24.175 
*END

*D_NET *12 0.00105386
*CONN
*P A[5] I
*I *769:A I *D sky130_fd_sc_hd__clkbuf_1
*CAP
1 A[5] 0.000526932
2 *769:A 0.000526932
3 *769:A *770:A 0
4 *768:A *769:A 0
*RES
1 A[5] *769:A 24.175 
*END

*D_NET *13 0.0012353
*CONN
*P A[6] I
*I *770:A I *D sky130_fd_sc_hd__clkbuf_1
*CAP
1 A[6] 0.000546573
2 *770:A 0.000546573
3 *770:A *805:A 0.000142157
4 *769:A *770:A 0
*RES
1 A[6] *770:A 24.8357 
*END

*D_NET *14 0.00105386
*CONN
*P A[7] I
*I *771:A I *D sky130_fd_sc_hd__clkbuf_1
*CAP
1 A[7] 0.000526932
2 *771:A 0.000526932
3 *771:A *772:A 0
*RES
1 A[7] *771:A 24.175 
*END

*D_NET *15 0.00105386
*CONN
*P A[8] I
*I *772:A I *D sky130_fd_sc_hd__clkbuf_1
*CAP
1 A[8] 0.000526932
2 *772:A 0.000526932
3 *772:A *773:A 0
4 *772:A *180:12 0
5 *771:A *772:A 0
*RES
1 A[8] *772:A 24.175 
*END

*D_NET *16 0.00116622
*CONN
*P A[9] I
*I *773:A I *D sky130_fd_sc_hd__clkbuf_1
*CAP
1 A[9] 0.00053907
2 *773:A 0.00053907
3 *773:A *734:D 5.46532e-05
4 *773:A *180:12 3.34295e-05
5 *772:A *773:A 0
6 *777:A *773:A 0
*RES
1 A[9] *773:A 24.5857 
*END

*D_NET *17 0.00255936
*CONN
*P B[0] I
*I *774:A I *D sky130_fd_sc_hd__clkbuf_1
*CAP
1 B[0] 0.000858171
2 *774:A 0.000858171
3 *774:A S[1] 0.000312215
4 *774:A S[2] 1.15172e-05
5 *774:A *742:D 9.90431e-05
6 *774:A *782:A 0.000370749
7 *774:A *808:A 4.94936e-05
*RES
1 B[0] *774:A 32.9071 
*END

*D_NET *18 0.000920501
*CONN
*P B[10] I
*I *775:A I *D sky130_fd_sc_hd__clkbuf_1
*CAP
1 B[10] 0.00046025
2 *775:A 0.00046025
3 *775:A *776:A 0
4 *775:A *791:A 0
*RES
1 B[10] *775:A 24.2464 
*END

*D_NET *19 0.000936522
*CONN
*P B[11] I
*I *776:A I *D sky130_fd_sc_hd__clkbuf_1
*CAP
1 B[11] 0.000468261
2 *776:A 0.000468261
3 *776:A *778:A 0
4 *775:A *776:A 0
*RES
1 B[11] *776:A 22.6571 
*END

*D_NET *20 0.000941071
*CONN
*P B[12] I
*I *778:A I *D sky130_fd_sc_hd__clkbuf_1
*CAP
1 B[12] 0.000470535
2 *778:A 0.000470535
3 *778:A *779:A 0
4 *776:A *778:A 0
*RES
1 B[12] *778:A 22.6571 
*END

*D_NET *21 0.000952336
*CONN
*P B[13] I
*I *779:A I *D sky130_fd_sc_hd__clkbuf_1
*CAP
1 B[13] 0.000465286
2 *779:A 0.000465286
3 *779:A *756:D 2.17647e-05
4 *779:A *780:A 0
5 *778:A *779:A 0
*RES
1 B[13] *779:A 22.6571 
*END

*D_NET *22 0.000901656
*CONN
*P B[14] I
*I *780:A I *D sky130_fd_sc_hd__clkbuf_1
*CAP
1 B[14] 0.000423213
2 *780:A 0.000423213
3 *780:A *781:A 5.52302e-05
4 *779:A *780:A 0
*RES
1 B[14] *780:A 21.8357 
*END

*D_NET *23 0.00142873
*CONN
*P B[15] I
*I *781:A I *D sky130_fd_sc_hd__clkbuf_1
*CAP
1 B[15] 0.000686749
2 *781:A 0.000686749
3 *780:A *781:A 5.52302e-05
*RES
1 B[15] *781:A 26.4786 
*END

*D_NET *24 0.00185594
*CONN
*P B[1] I
*I *782:A I *D sky130_fd_sc_hd__clkbuf_1
*CAP
1 B[1] 0.000578682
2 *782:A 0.000578682
3 *782:A S[2] 3.69047e-06
4 *782:A *742:CLK 0.000173076
5 *782:A *742:D 0
6 *782:A *783:A 0
7 *782:A *808:A 0.000151061
8 *774:A *782:A 0.000370749
*RES
1 B[1] *782:A 27.5679 
*END

*D_NET *25 0.00118051
*CONN
*P B[2] I
*I *783:A I *D sky130_fd_sc_hd__clkbuf_1
*CAP
1 B[2] 0.000541257
2 *783:A 0.000541257
3 *783:A S[0] 0
4 *783:A *784:A 0
5 *783:A *230:14 9.80003e-05
6 *782:A *783:A 0
*RES
1 B[2] *783:A 24.3 
*END

*D_NET *26 0.00115264
*CONN
*P B[3] I
*I *784:A I *D sky130_fd_sc_hd__clkbuf_1
*CAP
1 B[3] 0.000485444
2 *784:A 0.000485444
3 *784:A S[0] 0.000163442
4 *784:A *743:D 1.83136e-05
5 *784:A *785:A 0
6 *783:A *784:A 0
*RES
1 B[3] *784:A 23.7286 
*END

*D_NET *27 0.00094414
*CONN
*P B[4] I
*I *785:A I *D sky130_fd_sc_hd__clkbuf_1
*CAP
1 B[4] 0.000462425
2 *785:A 0.000462425
3 *785:A *786:A 0
4 *785:A *165:14 1.92905e-05
5 *784:A *785:A 0
*RES
1 B[4] *785:A 22.6571 
*END

*D_NET *28 0.00094414
*CONN
*P B[5] I
*I *786:A I *D sky130_fd_sc_hd__clkbuf_1
*CAP
1 B[5] 0.000462425
2 *786:A 0.000462425
3 *786:A *746:D 1.92905e-05
4 *786:A *787:A 0
5 *785:A *786:A 0
*RES
1 B[5] *786:A 22.6571 
*END

*D_NET *29 0.000997167
*CONN
*P B[6] I
*I *787:A I *D sky130_fd_sc_hd__clkbuf_1
*CAP
1 B[6] 0.000498583
2 *787:A 0.000498583
3 *787:A *789:A 0
4 *786:A *787:A 0
*RES
1 B[6] *787:A 23.0679 
*END

*D_NET *30 0.000845882
*CONN
*P B[7] I
*I *789:A I *D sky130_fd_sc_hd__clkbuf_1
*CAP
1 B[7] 0.000421096
2 *789:A 0.000421096
3 *789:A *747:D 3.69047e-06
4 *789:A *790:A 0
5 *787:A *789:A 0
*RES
1 B[7] *789:A 21.8357 
*END

*D_NET *31 0.00084331
*CONN
*P B[8] I
*I *790:A I *D sky130_fd_sc_hd__clkbuf_1
*CAP
1 B[8] 0.000421655
2 *790:A 0.000421655
3 *790:A *791:A 0
4 *789:A *790:A 0
*RES
1 B[8] *790:A 21.8357 
*END

*D_NET *32 0.000892397
*CONN
*P B[9] I
*I *791:A I *D sky130_fd_sc_hd__clkbuf_1
*CAP
1 B[9] 0.000446198
2 *791:A 0.000446198
3 *775:A *791:A 0
4 *790:A *791:A 0
*RES
1 B[9] *791:A 22.2464 
*END

*D_NET *33 0.00637057
*CONN
*P CLK I
*I *758:A I *D sky130_fd_sc_hd__clkbuf_16
*CAP
1 CLK 0.00294717
2 *758:A 0.00294717
3 *758:A *752:D 0.00018368
4 *758:A *762:A 0.000115309
5 *758:A *123:8 0
6 *758:A *141:35 9.08889e-06
7 *758:A *199:10 0.000122609
8 *758:A *201:14 4.5539e-05
*RES
1 CLK *758:A 31.958 
*END

*D_NET *34 0.00136349
*CONN
*P Cin I
*I *792:A I *D sky130_fd_sc_hd__clkbuf_1
*CAP
1 Cin 0.000442892
2 *792:A 0.000442892
3 *792:A *172:12 0.000477704
*RES
1 Cin *792:A 23.8907 
*END

*D_NET *35 0.0017892
*CONN
*P Cout O
*I *799:X O *D sky130_fd_sc_hd__buf_1
*CAP
1 Cout 0.000746851
2 *799:X 0.000746851
3 Cout S[15] 0
4 Cout *805:A 7.2713e-05
5 *766:A Cout 0.000222784
6 *797:A Cout 0
*RES
1 *799:X Cout 26.1579 
*END

*D_NET *36 0.00219226
*CONN
*P S[0] O
*I *800:X O *D sky130_fd_sc_hd__buf_1
*CAP
1 S[0] 0.000937994
2 *800:X 0.000937994
3 S[0] S[1] 0
4 S[0] *743:CLK 3.31578e-05
5 S[0] *743:D 7.83587e-05
6 S[0] *800:A 3.41507e-05
7 S[0] *808:A 7.15905e-06
8 S[0] *230:14 0
9 *783:A S[0] 0
10 *784:A S[0] 0.000163442
*RES
1 *800:X S[0] 25.1694 
*END

*D_NET *37 0.000687077
*CONN
*P S[10] O
*I *801:X O *D sky130_fd_sc_hd__buf_1
*CAP
1 S[10] 0.000337284
2 *801:X 0.000337284
3 S[10] S[11] 0
4 S[10] S[9] 1.25084e-05
*RES
1 *801:X S[10] 20.7838 
*END

*D_NET *38 0.000783552
*CONN
*P S[11] O
*I *802:X O *D sky130_fd_sc_hd__buf_1
*CAP
1 S[11] 0.000315006
2 *802:X 0.000315006
3 S[11] S[12] 0
4 S[11] *802:A 7.34588e-05
5 S[11] *803:A 8.00806e-05
6 S[10] S[11] 0
*RES
1 *802:X S[11] 20.5514 
*END

*D_NET *39 0.000704092
*CONN
*P S[12] O
*I *803:X O *D sky130_fd_sc_hd__buf_1
*CAP
1 S[12] 0.000348879
2 *803:X 0.000348879
3 S[12] S[13] 6.33508e-06
4 S[12] *803:A 0
5 S[11] S[12] 0
*RES
1 *803:X S[12] 21.0874 
*END

*D_NET *40 0.000825008
*CONN
*P S[13] O
*I *804:X O *D sky130_fd_sc_hd__buf_1
*CAP
1 S[13] 0.00040503
2 *804:X 0.00040503
3 S[13] S[14] 8.6123e-06
4 S[13] *143:100 0
5 S[12] S[13] 6.33508e-06
*RES
1 *804:X S[13] 22.3017 
*END

*D_NET *41 0.000953113
*CONN
*P S[14] O
*I *805:X O *D sky130_fd_sc_hd__buf_1
*CAP
1 S[14] 0.000436632
2 *805:X 0.000436632
3 S[14] S[15] 0
4 S[14] *726:CLK 7.1237e-05
5 S[14] *726:D 0
6 S[13] S[14] 8.6123e-06
*RES
1 *805:X S[14] 21.7657 
*END

*D_NET *42 0.00205197
*CONN
*P S[15] O
*I *806:X O *D sky130_fd_sc_hd__buf_1
*CAP
1 S[15] 0.00101567
2 *806:X 0.00101567
3 S[15] *806:A 2.06178e-05
4 Cout S[15] 0
5 S[14] S[15] 0
*RES
1 *806:X S[15] 19.348 
*END

*D_NET *43 0.0010675
*CONN
*P S[1] O
*I *807:X O *D sky130_fd_sc_hd__buf_1
*CAP
1 S[1] 0.000377644
2 *807:X 0.000377644
3 S[1] S[2] 0
4 S[0] S[1] 0
5 *774:A S[1] 0.000312215
*RES
1 *807:X S[1] 21.0665 
*END

*D_NET *44 0.000743399
*CONN
*P S[2] O
*I *808:X O *D sky130_fd_sc_hd__buf_1
*CAP
1 S[2] 0.000322165
2 *808:X 0.000322165
3 S[2] S[3] 0
4 S[2] *742:CLK 8.38621e-05
5 S[1] S[2] 0
6 *774:A S[2] 1.15172e-05
7 *782:A S[2] 3.69047e-06
*RES
1 *808:X S[2] 20.4079 
*END

*D_NET *45 0.000823247
*CONN
*P S[3] O
*I *809:X O *D sky130_fd_sc_hd__buf_1
*CAP
1 S[3] 0.000406028
2 *809:X 0.000406028
3 S[3] S[4] 1.1192e-05
4 S[2] S[3] 0
*RES
1 *809:X S[3] 22.3017 
*END

*D_NET *46 0.000622652
*CONN
*P S[4] O
*I *810:X O *D sky130_fd_sc_hd__buf_1
*CAP
1 S[4] 0.00030573
2 *810:X 0.00030573
3 S[4] S[5] 0
4 S[4] *230:14 0
5 S[3] S[4] 1.1192e-05
*RES
1 *810:X S[4] 19.3371 
*END

*D_NET *47 0.000899377
*CONN
*P S[5] O
*I *811:X O *D sky130_fd_sc_hd__buf_1
*CAP
1 S[5] 0.000441992
2 *811:X 0.000441992
3 S[5] S[6] 1.53929e-05
4 S[4] S[5] 0
*RES
1 *811:X S[5] 22.016 
*END

*D_NET *48 0.000727804
*CONN
*P S[6] O
*I *812:X O *D sky130_fd_sc_hd__buf_1
*CAP
1 S[6] 0.000330369
2 *812:X 0.000330369
3 S[6] S[7] 0
4 S[6] *812:A 5.16734e-05
5 S[5] S[6] 1.53929e-05
*RES
1 *812:X S[6] 20.4079 
*END

*D_NET *49 0.000781656
*CONN
*P S[7] O
*I *813:X O *D sky130_fd_sc_hd__buf_1
*CAP
1 S[7] 0.00036344
2 *813:X 0.00036344
3 S[7] S[8] 0
4 S[7] *813:A 5.47763e-05
5 S[6] S[7] 0
*RES
1 *813:X S[7] 20.855 
*END

*D_NET *50 0.000713042
*CONN
*P S[8] O
*I *814:X O *D sky130_fd_sc_hd__buf_1
*CAP
1 S[8] 0.000353863
2 *814:X 0.000353863
3 S[8] S[9] 5.31679e-06
4 S[7] S[8] 0
*RES
1 *814:X S[8] 21.0874 
*END

*D_NET *51 0.00069893
*CONN
*P S[9] O
*I *815:X O *D sky130_fd_sc_hd__buf_1
*CAP
1 S[9] 0.000340552
2 *815:X 0.000340552
3 S[10] S[9] 1.25084e-05
4 S[8] S[9] 5.31679e-06
*RES
1 *815:X S[9] 20.7838 
*END

*D_NET *54 0.00303311
*CONN
*I *670:A I *D sky130_fd_sc_hd__xnor2_1
*I *657:A I *D sky130_fd_sc_hd__nor2_1
*I *653:Y O *D sky130_fd_sc_hd__nand2_1
*CAP
1 *670:A 0.000460193
2 *657:A 7.09124e-05
3 *653:Y 0.000313587
4 *54:12 0.000844692
5 *657:A *658:A1 0.000219627
6 *657:A *671:B 0.000197516
7 *670:A *655:B 1.12578e-05
8 *670:A *669:A1 1.98839e-05
9 *670:A *669:A2 0.000271352
10 *670:A *669:B1_N 5.52302e-05
11 *670:A *670:B 9.31011e-05
12 *670:A *59:8 4.91937e-05
13 *670:A *168:14 0
14 *670:A *227:18 1.74352e-05
15 *54:12 *654:B 0.000274546
16 *54:12 *659:A 5.45307e-05
17 *54:12 *671:B 5.33005e-05
18 *54:12 *60:10 2.67489e-05
*RES
1 *653:Y *54:12 20.2286 
2 *54:12 *657:A 16.6571 
3 *54:12 *670:A 22.175 
*END

*D_NET *55 0.00167862
*CONN
*I *669:A2 I *D sky130_fd_sc_hd__a21bo_1
*I *656:A I *D sky130_fd_sc_hd__nand2_1
*I *654:X O *D sky130_fd_sc_hd__or2_1
*CAP
1 *669:A2 0.000215208
2 *656:A 0.000237064
3 *654:X 0
4 *55:6 0.000452273
5 *656:A *654:A 2.26055e-05
6 *656:A *658:B1 0.000120148
7 *656:A *671:B 3.82151e-05
8 *656:A *59:8 3.67279e-06
9 *656:A *60:10 1.00887e-05
10 *669:A2 *669:A1 5.52302e-05
11 *669:A2 *669:B1_N 9.02232e-05
12 *669:A2 *59:8 3.73773e-05
13 *669:A2 *60:10 0.00012516
14 *670:A *669:A2 0.000271352
*RES
1 *654:X *55:6 13.8 
2 *55:6 *656:A 18.3357 
3 *55:6 *669:A2 19.675 
*END

*D_NET *56 0.0020775
*CONN
*I *669:B1_N I *D sky130_fd_sc_hd__a21bo_1
*I *659:B I *D sky130_fd_sc_hd__nand2_1
*I *656:B I *D sky130_fd_sc_hd__nand2_1
*I *655:Y O *D sky130_fd_sc_hd__nand2_1
*CAP
1 *669:B1_N 0.000393887
2 *659:B 0
3 *656:B 8.81208e-05
4 *655:Y 0
5 *56:21 0.000582053
6 *56:4 0.000276287
7 *656:B *654:A 1.24368e-05
8 *656:B *655:B 4.13389e-05
9 *656:B *57:8 1.19813e-05
10 *669:B1_N *653:A 7.67536e-05
11 *669:B1_N *139:12 0.00011219
12 *669:B1_N *139:18 9.90367e-05
13 *56:21 *653:A 3.4846e-06
14 *56:21 *654:A 1.4796e-05
15 *56:21 *139:12 0.000203475
16 *56:21 *215:14 1.62025e-05
17 *669:A2 *669:B1_N 9.02232e-05
18 *670:A *669:B1_N 5.52302e-05
*RES
1 *655:Y *56:4 9.3 
2 *56:4 *656:B 11.4071 
3 *56:4 *56:21 7.80357 
4 *56:21 *659:B 13.8 
5 *56:21 *669:B1_N 19.675 
*END

*D_NET *57 0.00113247
*CONN
*I *657:B I *D sky130_fd_sc_hd__nor2_1
*I *671:B I *D sky130_fd_sc_hd__xnor2_1
*I *656:Y O *D sky130_fd_sc_hd__nand2_1
*CAP
1 *657:B 0
2 *671:B 0.000143697
3 *656:Y 5.72136e-05
4 *57:8 0.000200911
5 *671:B *654:B 3.37161e-05
6 *671:B *655:B 5.66971e-05
7 *671:B *658:A2 0.000136727
8 *671:B *658:B1 0.000126272
9 *671:B *214:14 2.85234e-05
10 *57:8 *655:B 4.77002e-05
11 *656:A *671:B 3.82151e-05
12 *656:B *57:8 1.19813e-05
13 *657:A *671:B 0.000197516
14 *54:12 *671:B 5.33005e-05
*RES
1 *656:Y *57:8 10.675 
2 *57:8 *671:B 23.1571 
3 *57:8 *657:B 9.3 
*END

*D_NET *58 0.000318819
*CONN
*I *658:B1 I *D sky130_fd_sc_hd__o21ai_1
*I *657:Y O *D sky130_fd_sc_hd__nor2_1
*CAP
1 *658:B1 3.61998e-05
2 *657:Y 3.61998e-05
3 *656:A *658:B1 0.000120148
4 *671:B *658:B1 0.000126272
*RES
1 *657:Y *658:B1 29.2429 
*END

*D_NET *59 0.00178057
*CONN
*I *665:B1_N I *D sky130_fd_sc_hd__a21bo_1
*I *663:A1 I *D sky130_fd_sc_hd__a21oi_1
*I *707:A2 I *D sky130_fd_sc_hd__o31ai_1
*I *658:Y O *D sky130_fd_sc_hd__o21ai_1
*CAP
1 *665:B1_N 3.92213e-05
2 *663:A1 3.11483e-05
3 *707:A2 0.000112938
4 *658:Y 0.00030854
5 *59:12 0.000323485
6 *59:8 0.00052716
7 *663:A1 *663:A2 5.59013e-05
8 *663:A1 *664:A 4.1331e-06
9 *663:A1 *707:B1 0
10 *665:B1_N *66:14 5.52302e-05
11 *707:A2 *663:B1 7.96557e-05
12 *707:A2 *707:B1 9.75337e-06
13 *707:A2 *94:10 1.74352e-05
14 *59:8 *665:A2 0
15 *59:8 *60:10 0
16 *59:8 *168:14 0
17 *59:12 *606:B 0
18 *59:12 *663:A2 0.000125724
19 *59:12 *665:A2 0
20 *59:12 *707:B1 0
21 *59:12 *66:14 0
22 *59:12 *168:14 0
23 *656:A *59:8 3.67279e-06
24 *669:A2 *59:8 3.73773e-05
25 *670:A *59:8 4.91937e-05
*RES
1 *658:Y *59:8 19.6929 
2 *59:8 *59:12 3.39286 
3 *59:12 *707:A2 15.7732 
4 *59:12 *663:A1 14.5321 
5 *59:8 *665:B1_N 14.3357 
*END

*D_NET *60 0.00235915
*CONN
*I *665:A2 I *D sky130_fd_sc_hd__a21bo_1
*I *661:A2 I *D sky130_fd_sc_hd__a21oi_1
*I *659:Y O *D sky130_fd_sc_hd__nand2_1
*CAP
1 *665:A2 0.000168701
2 *661:A2 0
3 *659:Y 0.000315252
4 *60:10 0.000483952
5 *665:A2 *606:B 1.08359e-05
6 *665:A2 *663:A2 0.000186662
7 *665:A2 *665:A1 0.000430632
8 *665:A2 *707:B1 9.31893e-05
9 *665:A2 *66:14 2.44318e-05
10 *665:A2 *139:18 6.0038e-05
11 *60:10 *654:B 0.000141935
12 *60:10 *139:12 2.71883e-05
13 *60:10 *139:18 0.000254337
14 *656:A *60:10 1.00887e-05
15 *669:A2 *60:10 0.00012516
16 *54:12 *60:10 2.67489e-05
17 *59:8 *665:A2 0
18 *59:8 *60:10 0
19 *59:12 *665:A2 0
*RES
1 *659:Y *60:10 20.3536 
2 *60:10 *661:A2 13.8 
3 *60:10 *665:A2 19.7643 
*END

*D_NET *61 0.0010186
*CONN
*I *666:B I *D sky130_fd_sc_hd__or2_1
*I *661:B1 I *D sky130_fd_sc_hd__a21oi_1
*I *660:X O *D sky130_fd_sc_hd__and2_1
*CAP
1 *666:B 0
2 *661:B1 0.00020743
3 *660:X 3.1687e-05
4 *61:6 0.000239117
5 *661:B1 *605:A 5.71472e-05
6 *661:B1 *606:B 0.000225988
7 *661:B1 *662:B 0.000158484
8 *661:B1 *705:A 0
9 *661:B1 *63:10 5.94476e-05
10 *661:B1 *190:20 1.08936e-05
11 *661:B1 *208:18 0
12 *61:6 *706:A1 2.84109e-05
*RES
1 *660:X *61:6 9.83571 
2 *61:6 *661:B1 23.3536 
3 *61:6 *666:B 9.3 
*END

*D_NET *62 0.00186975