* NGSPICE file created from fa16.ext - technology: sky130A

.subckt fa16 S15 DVDD A12 A13 A14 A15 A9 A8 A10 A11 B13 B12 A6 B14 A5 A4 B15 A7 A2 B11 B10 A0 B9 B8 A1 A3 B6 B5 B4 B7 B2 B0 B3 B1
+ Cin DGND
X0 a_4691_n3974# A11.t0 DGND.t285 DGND.t284 sky130_fd_pr__nfet_01v8 ad=0.08775 pd=0.92 as=0.08775 ps=0.92 w=0.65 l=0.15
X1 a_5402_n3546# a_4204_n3054# a_5819_n3308# DVDD.t272 sky130_fd_pr__pfet_01v8 ad=0.0567 pd=0.69 as=0.0567 ps=0.69 w=0.42 l=0.15
X2 a_4691_n1494# A15.t0 DGND.t390 DGND.t389 sky130_fd_pr__nfet_01v8 ad=0.08775 pd=0.92 as=0.08775 ps=0.92 w=0.65 l=0.15
X3 a_541_n828# A2.t0 DVDD.t107 DVDD.t106 sky130_fd_pr__pfet_01v8 ad=0.06195 pd=0.715 as=0.0567 ps=0.69 w=0.42 l=0.15
X4 DVDD.t507 a_1201_n3054# a_2273_n2734# DVDD.t506 sky130_fd_pr__pfet_01v8 ad=0.135 pd=1.27 as=0.165 ps=1.33 w=1 l=0.15
X5 a_5288_n828# B14.t0 a_5192_n828# DVDD.t232 sky130_fd_pr__pfet_01v8 ad=0.0441 pd=0.63 as=0.0693 ps=0.75 w=0.42 l=0.15
X6 DGND.t541 B9.t0 a_4363_n2434# DGND.t540 sky130_fd_pr__nfet_01v8 ad=0.0567 pd=0.69 as=0.1092 ps=1.36 w=0.42 l=0.15
X7 a_4697_n2434# B9.t1 a_3946_n2306# DGND.t344 sky130_fd_pr__nfet_01v8 ad=0.063 pd=0.72 as=0.0567 ps=0.69 w=0.42 l=0.15
X8 a_894_n1194# a_143_n1036# a_798_n1194# DGND.t3 sky130_fd_pr__nfet_01v8 ad=0.0441 pd=0.63 as=0.0693 ps=0.75 w=0.42 l=0.15
X9 DGND.t160 A10.t0 a_5456_n3674# DGND.t159 sky130_fd_pr__nfet_01v8 ad=0.0567 pd=0.69 as=0.06195 ps=0.715 w=0.42 l=0.15
X10 a_894_n3674# a_143_n3516# a_798_n3674# DGND.t211 sky130_fd_pr__nfet_01v8 ad=0.0441 pd=0.63 as=0.0693 ps=0.75 w=0.42 l=0.15
X11 DGND.t340 A14.t0 a_5456_n1194# DGND.t339 sky130_fd_pr__nfet_01v8 ad=0.0567 pd=0.69 as=0.06195 ps=0.715 w=0.42 l=0.15
X12 DVDD.t109 A2.t1 a_n41_n1814# DVDD.t108 sky130_fd_pr__pfet_01v8 ad=0.135 pd=1.27 as=0.135 ps=1.27 w=1 l=0.15
X13 a_n131_n574# a_n71_n600# DGND.t528 DGND.t527 sky130_fd_pr__nfet_01v8 ad=0.25025 pd=1.42 as=0.208 ps=1.94 w=0.65 l=0.15
X14 a_1467_46# A1.t0 DGND.t415 DGND.t414 sky130_fd_pr__nfet_01v8 ad=0.063 pd=0.72 as=0.1596 ps=1.6 w=0.42 l=0.15
X15 a_4691_n1814# A15.t1 DVDD.t341 DVDD.t340 sky130_fd_pr__pfet_01v8 ad=0.135 pd=1.27 as=0.135 ps=1.27 w=1 l=0.15
X16 DVDD.t103 A6.t0 a_185_n3308# DVDD.t102 sky130_fd_pr__pfet_01v8 ad=0.0567 pd=0.69 as=0.0567 ps=0.69 w=0.42 l=0.15
X17 a_11_n1194# A2.t2 DGND.t468 DGND.t467 sky130_fd_pr__nfet_01v8 ad=0.063 pd=0.72 as=0.1596 ps=1.6 w=0.42 l=0.15
X18 a_3874_n3700# a_5402_n3546# DGND.t238 DGND.t237 sky130_fd_pr__nfet_01v8 ad=0.169 pd=1.82 as=0.169 ps=1.82 w=0.65 l=0.15
X19 a_11_n3674# A6.t1 DGND.t36 DGND.t35 sky130_fd_pr__nfet_01v8 ad=0.063 pd=0.72 as=0.1596 ps=1.6 w=0.42 l=0.15
X20 a_3874_n1220# a_5402_n1066# DGND.t526 DGND.t525 sky130_fd_pr__nfet_01v8 ad=0.169 pd=1.82 as=0.169 ps=1.82 w=0.65 l=0.15
X21 a_5819_n2068# A8.t0 DVDD.t169 DVDD.t168 sky130_fd_pr__pfet_01v8 ad=0.0567 pd=0.69 as=0.0567 ps=0.69 w=0.42 l=0.15
X22 DVDD.t199 a_3861_n3080# a_3322_n4062# DVDD.t198 sky130_fd_pr__pfet_01v8 ad=0.3 pd=2.6 as=0.165 ps=1.33 w=1 l=0.15
X23 a_147_n1494# B2.t0 a_n131_n1814# DGND.t16 sky130_fd_pr__nfet_01v8 ad=0.08775 pd=0.92 as=0.25025 ps=1.42 w=0.65 l=0.15
X24 a_147_n3974# B6.t0 a_n131_n4294# DGND.t178 sky130_fd_pr__nfet_01v8 ad=0.08775 pd=0.92 as=0.25025 ps=1.42 w=0.65 l=0.15
X25 a_315_n3054# A4.t0 DVDD.t116 DVDD.t115 sky130_fd_pr__pfet_01v8 ad=0.135 pd=1.27 as=0.135 ps=1.27 w=1 l=0.15
X26 DGND.t10 B2.t1 a_n71_n1840# DGND.t9 sky130_fd_pr__nfet_01v8 ad=0.169 pd=1.82 as=0.08775 ps=0.92 w=0.65 l=0.15
X27 DGND.t183 B6.t1 a_n71_n4320# DGND.t182 sky130_fd_pr__nfet_01v8 ad=0.169 pd=1.82 as=0.08775 ps=0.92 w=0.65 l=0.15
X28 a_3832_46# B13.t0 a_3736_46# DGND.t473 sky130_fd_pr__nfet_01v8 ad=0.0441 pd=0.63 as=0.0693 ps=0.75 w=0.42 l=0.15
X29 a_3655_n1516# a_3322_n1582# DVDD.t449 DVDD.t448 sky130_fd_pr__pfet_01v8 ad=0.1176 pd=1.4 as=0.0693 ps=0.75 w=0.42 l=0.15
X30 a_966_n3674# B6.t2 a_894_n3674# DGND.t472 sky130_fd_pr__nfet_01v8 ad=0.0693 pd=0.75 as=0.0441 ps=0.63 w=0.42 l=0.15
X31 a_4523_n3054# B9.t2 a_4441_n3054# DVDD.t514 sky130_fd_pr__pfet_01v8 ad=0.135 pd=1.27 as=0.26 ps=2.52 w=1 l=0.15
X32 a_2350_46# a_636_n574# a_2254_46# DGND.t151 sky130_fd_pr__nfet_01v8 ad=0.0441 pd=0.63 as=0.0693 ps=0.75 w=0.42 l=0.15
X33 a_3874_20# a_5402_174# DGND.t351 DGND.t350 sky130_fd_pr__nfet_01v8 ad=0.169 pd=1.82 as=0.169 ps=1.82 w=0.65 l=0.15
X34 a_966_n1194# B2.t2 a_894_n1194# DGND.t416 sky130_fd_pr__nfet_01v8 ad=0.0693 pd=0.75 as=0.0441 ps=0.63 w=0.42 l=0.15
X35 DGND.t283 A11.t1 a_4441_n4294# DGND.t282 sky130_fd_pr__nfet_01v8 ad=0.08775 pd=0.92 as=0.08775 ps=0.92 w=0.65 l=0.15
X36 DGND.t343 A15.t2 a_4441_n1814# DGND.t342 sky130_fd_pr__nfet_01v8 ad=0.08775 pd=0.92 as=0.08775 ps=0.92 w=0.65 l=0.15
X37 a_3765_n3080# a_4441_n3054# a_4691_n3054# DVDD.t490 sky130_fd_pr__pfet_01v8 ad=0.3 pd=2.6 as=0.26 ps=2.52 w=1 l=0.15
X38 DVDD.t15 B10.t0 a_5456_n3308# DVDD.t14 sky130_fd_pr__pfet_01v8 ad=0.1092 pd=1.36 as=0.0567 ps=0.69 w=0.42 l=0.15
X39 a_3736_n3308# A11.t2 DVDD.t286 DVDD.t285 sky130_fd_pr__pfet_01v8 ad=0.0693 pd=0.75 as=0.1575 ps=1.59 w=0.42 l=0.15
X40 a_3874_n1220# a_5402_n1066# DVDD.t530 DVDD.t529 sky130_fd_pr__pfet_01v8 ad=0.26 pd=2.52 as=0.26 ps=2.52 w=1 l=0.15
X41 DVDD.t154 A13.t0 a_4523_n574# DVDD.t153 sky130_fd_pr__pfet_01v8 ad=0.135 pd=1.27 as=0.135 ps=1.27 w=1 l=0.15
X42 a_5192_n1194# A14.t1 DGND.t496 DGND.t495 sky130_fd_pr__nfet_01v8 ad=0.0693 pd=0.75 as=0.1176 ps=1.4 w=0.42 l=0.15
X43 a_5192_n3674# A10.t1 DGND.t273 DGND.t272 sky130_fd_pr__nfet_01v8 ad=0.0693 pd=0.75 as=0.1176 ps=1.4 w=0.42 l=0.15
X44 DVDD.t216 a_1557_n2434# a_143_n3516# DVDD.t215 sky130_fd_pr__pfet_01v8 ad=0.26 pd=2.52 as=0.26 ps=2.52 w=1 l=0.15
X45 a_2273_n254# a_1201_n1814# DVDD.t305 DVDD.t304 sky130_fd_pr__pfet_01v8 ad=0.135 pd=1.27 as=0.135 ps=1.27 w=1 l=0.15
X46 a_n71_n600# B0.t0 a_315_n574# DVDD.t6 sky130_fd_pr__pfet_01v8 ad=0.26 pd=2.52 as=0.135 ps=1.27 w=1 l=0.15
X47 DGND.t185 A7.t0 a_1641_n3674# DGND.t184 sky130_fd_pr__nfet_01v8 ad=0.0567 pd=0.69 as=0.0567 ps=0.69 w=0.42 l=0.15
X48 a_6153_n2068# B8.t0 a_5402_n2306# DVDD.t312 sky130_fd_pr__pfet_01v8 ad=0.063 pd=0.72 as=0.0567 ps=0.69 w=0.42 l=0.15
X49 a_n41_n1814# B2.t3 DVDD.t409 DVDD.t408 sky130_fd_pr__pfet_01v8 ad=0.135 pd=1.27 as=0.26 ps=2.52 w=1 l=0.15
X50 DGND.t440 A3.t0 a_1641_n1194# DGND.t439 sky130_fd_pr__nfet_01v8 ad=0.0567 pd=0.69 as=0.0567 ps=0.69 w=0.42 l=0.15
X51 a_n41_n1814# a_n71_n1840# a_n131_n1814# DVDD.t42 sky130_fd_pr__pfet_01v8 ad=0.26 pd=2.52 as=0.3 ps=2.6 w=1 l=0.15
X52 a_1641_412# a_636_n574# a_1557_46# DVDD.t145 sky130_fd_pr__pfet_01v8 ad=0.0567 pd=0.69 as=0.0567 ps=0.69 w=0.42 l=0.15
X53 a_5819_n828# A14.t2 DVDD.t495 DVDD.t494 sky130_fd_pr__pfet_01v8 ad=0.0567 pd=0.69 as=0.0567 ps=0.69 w=0.42 l=0.15
X54 a_n71_n1840# B2.t4 a_315_n1814# DVDD.t381 sky130_fd_pr__pfet_01v8 ad=0.26 pd=2.52 as=0.135 ps=1.27 w=1 l=0.15
X55 a_3765_n3080# B9.t3 a_4691_n2734# DGND.t512 sky130_fd_pr__nfet_01v8 ad=0.25025 pd=1.42 as=0.08775 ps=0.92 w=0.65 l=0.15
X56 DVDD.t227 A15.t3 a_4523_n1814# DVDD.t226 sky130_fd_pr__pfet_01v8 ad=0.135 pd=1.27 as=0.135 ps=1.27 w=1 l=0.15
X57 a_4697_n828# B15.t0 a_3946_n1066# DVDD.t247 sky130_fd_pr__pfet_01v8 ad=0.063 pd=0.72 as=0.0567 ps=0.69 w=0.42 l=0.15
X58 a_11_46# A0.t0 DGND.t72 DGND.t71 sky130_fd_pr__nfet_01v8 ad=0.063 pd=0.72 as=0.1596 ps=1.6 w=0.42 l=0.15
X59 a_5360_n2434# a_2995_n4294# a_5288_n2434# DGND.t61 sky130_fd_pr__nfet_01v8 ad=0.0693 pd=0.75 as=0.0441 ps=0.63 w=0.42 l=0.15
X60 a_541_n828# B2.t5 DVDD.t364 DVDD.t363 sky130_fd_pr__pfet_01v8 ad=0.0567 pd=0.69 as=0.1092 ps=1.36 w=0.42 l=0.15
X61 DVDD.t274 A10.t2 a_5855_n4294# DVDD.t273 sky130_fd_pr__pfet_01v8 ad=0.135 pd=1.27 as=0.135 ps=1.27 w=1 l=0.15
X62 DVDD.t537 A0.t1 a_185_412# DVDD.t536 sky130_fd_pr__pfet_01v8 ad=0.0567 pd=0.69 as=0.0567 ps=0.69 w=0.42 l=0.15
X63 DVDD.t175 A13.t1 a_4697_412# DVDD.t174 sky130_fd_pr__pfet_01v8 ad=0.1575 pd=1.59 as=0.063 ps=0.72 w=0.42 l=0.15
X64 a_1641_n2434# a_636_n3054# a_1557_n2434# DGND.t142 sky130_fd_pr__nfet_01v8 ad=0.0567 pd=0.69 as=0.0567 ps=0.69 w=0.42 l=0.15
X65 a_4000_n2068# a_3946_n2306# a_3904_n2434# DVDD.t323 sky130_fd_pr__pfet_01v8 ad=0.06195 pd=0.715 as=0.0693 ps=0.75 w=0.42 l=0.15
X66 DVDD.t293 B12.t0 a_6023_n574# DVDD.t292 sky130_fd_pr__pfet_01v8 ad=0.26 pd=2.52 as=0.135 ps=1.27 w=1 l=0.15
X67 a_894_n828# a_143_n1036# a_798_n1194# DVDD.t3 sky130_fd_pr__pfet_01v8 ad=0.0441 pd=0.63 as=0.0693 ps=0.75 w=0.42 l=0.15
X68 a_2422_n2434# B5.t0 a_2350_n2434# DGND.t307 sky130_fd_pr__nfet_01v8 ad=0.0693 pd=0.75 as=0.0441 ps=0.63 w=0.42 l=0.15
X69 a_185_n2068# B4.t0 DVDD.t183 DVDD.t182 sky130_fd_pr__pfet_01v8 ad=0.1092 pd=1.36 as=0.0567 ps=0.69 w=0.42 l=0.15
X70 a_3655_n3996# a_3322_n4062# DVDD.t193 DVDD.t192 sky130_fd_pr__pfet_01v8 ad=0.1176 pd=1.4 as=0.0693 ps=0.75 w=0.42 l=0.15
X71 DVDD.t139 A10.t3 a_6153_n3308# DVDD.t138 sky130_fd_pr__pfet_01v8 ad=0.1575 pd=1.59 as=0.063 ps=0.72 w=0.42 l=0.15
X72 DVDD.t303 a_2908_n600# S15.t1 DVDD.t302 sky130_fd_pr__pfet_01v8 ad=0.26 pd=2.52 as=0.26 ps=2.52 w=1 l=0.15
X73 a_3655_n3996# a_3322_n4062# DGND.t199 DGND.t198 sky130_fd_pr__nfet_01v8 ad=0.1092 pd=1.36 as=0.1449 ps=1.11 w=0.42 l=0.15
X74 a_3655_n1516# a_3322_n1582# DGND.t457 DGND.t456 sky130_fd_pr__nfet_01v8 ad=0.1092 pd=1.36 as=0.1449 ps=1.11 w=0.42 l=0.15
X75 a_4000_46# a_3946_174# a_3904_46# DGND.t356 sky130_fd_pr__nfet_01v8 ad=0.06195 pd=0.715 as=0.0693 ps=0.75 w=0.42 l=0.15
X76 a_1467_n1194# A3.t1 DGND.t113 DGND.t112 sky130_fd_pr__nfet_01v8 ad=0.063 pd=0.72 as=0.1596 ps=1.6 w=0.42 l=0.15
X77 a_1467_n3674# A7.t1 DGND.t386 DGND.t385 sky130_fd_pr__nfet_01v8 ad=0.063 pd=0.72 as=0.1596 ps=1.6 w=0.42 l=0.15
X78 a_5456_n3308# a_4204_n3054# DVDD.t271 DVDD.t270 sky130_fd_pr__pfet_01v8 ad=0.0567 pd=0.69 as=0.0567 ps=0.69 w=0.42 l=0.15
X79 DVDD.t311 A12.t0 a_5456_412# DVDD.t310 sky130_fd_pr__pfet_01v8 ad=0.0567 pd=0.69 as=0.06195 ps=0.715 w=0.42 l=0.15
X80 a_1201_n3054# a_1261_n3080# DGND.t221 DGND.t220 sky130_fd_pr__nfet_01v8 ad=0.25025 pd=1.42 as=0.208 ps=1.94 w=0.65 l=0.15
X81 DVDD.t133 a_636_n3054# a_1997_n2068# DVDD.t132 sky130_fd_pr__pfet_01v8 ad=0.0567 pd=0.69 as=0.0567 ps=0.69 w=0.42 l=0.15
X82 a_5402_n2306# a_2995_n4294# a_5819_n2068# DVDD.t50 sky130_fd_pr__pfet_01v8 ad=0.0567 pd=0.69 as=0.0567 ps=0.69 w=0.42 l=0.15
X83 a_101_n2434# B4.t1 a_11_n2068# DVDD.t423 sky130_fd_pr__pfet_01v8 ad=0.0567 pd=0.69 as=0.063 ps=0.72 w=0.42 l=0.15
X84 DGND.t464 B11.t0 a_4363_n3674# DGND.t463 sky130_fd_pr__nfet_01v8 ad=0.0567 pd=0.69 as=0.1092 ps=1.36 w=0.42 l=0.15
X85 DGND.t494 A0.t2 a_185_46# DGND.t493 sky130_fd_pr__nfet_01v8 ad=0.0567 pd=0.69 as=0.0567 ps=0.69 w=0.42 l=0.15
X86 a_4363_46# A13.t2 DGND.t40 DGND.t39 sky130_fd_pr__nfet_01v8 ad=0.0567 pd=0.69 as=0.0567 ps=0.69 w=0.42 l=0.15
X87 DGND.t120 B15.t1 a_4363_n1194# DGND.t119 sky130_fd_pr__nfet_01v8 ad=0.0567 pd=0.69 as=0.1092 ps=1.36 w=0.42 l=0.15
X88 a_4697_n1194# B15.t2 a_3946_n1066# DGND.t97 sky130_fd_pr__nfet_01v8 ad=0.063 pd=0.72 as=0.0567 ps=0.69 w=0.42 l=0.15
X89 a_4697_n3674# B11.t1 a_3946_n3546# DGND.t465 sky130_fd_pr__nfet_01v8 ad=0.063 pd=0.72 as=0.0567 ps=0.69 w=0.42 l=0.15
X90 a_4697_412# B13.t1 a_3946_174# DVDD.t75 sky130_fd_pr__pfet_01v8 ad=0.063 pd=0.72 as=0.0567 ps=0.69 w=0.42 l=0.15
X91 DGND.t219 a_143_n2276# a_541_n2434# DGND.t218 sky130_fd_pr__nfet_01v8 ad=0.0567 pd=0.69 as=0.0567 ps=0.69 w=0.42 l=0.15
X92 DVDD.t229 A15.t4 a_4697_n828# DVDD.t228 sky130_fd_pr__pfet_01v8 ad=0.1575 pd=1.59 as=0.063 ps=0.72 w=0.42 l=0.15
X93 a_1557_n2434# B5.t1 a_1467_n2434# DGND.t186 sky130_fd_pr__nfet_01v8 ad=0.0567 pd=0.69 as=0.063 ps=0.72 w=0.42 l=0.15
X94 DVDD.t250 a_3669_n342# a_3322_n1582# DVDD.t249 sky130_fd_pr__pfet_01v8 ad=0.135 pd=1.27 as=0.135 ps=1.27 w=1 l=0.15
X95 a_2790_n3928# a_1968_n4294# a_2569_n4255# DGND.t466 sky130_fd_pr__nfet_01v8 ad=0.0693 pd=0.75 as=0.09975 ps=0.895 w=0.42 l=0.15
X96 a_798_n3674# a_101_n3674# a_541_n3308# DVDD.t26 sky130_fd_pr__pfet_01v8 ad=0.0693 pd=0.75 as=0.06195 ps=0.715 w=0.42 l=0.15
X97 a_1641_n2434# B5.t2 DGND.t297 DGND.t296 sky130_fd_pr__nfet_01v8 ad=0.1092 pd=1.36 as=0.0567 ps=0.69 w=0.42 l=0.15
X98 a_2790_n1448# a_1968_n1814# a_2569_n1775# DGND.t54 sky130_fd_pr__nfet_01v8 ad=0.0693 pd=0.75 as=0.09975 ps=0.895 w=0.42 l=0.15
X99 DVDD.t288 A0.t3 a_n41_n574# DVDD.t287 sky130_fd_pr__pfet_01v8 ad=0.135 pd=1.27 as=0.135 ps=1.27 w=1 l=0.15
X100 a_4000_n2434# a_3874_n2460# DGND.t260 DGND.t259 sky130_fd_pr__nfet_01v8 ad=0.0567 pd=0.69 as=0.0567 ps=0.69 w=0.42 l=0.15
X101 DVDD.t466 A4.t1 a_185_n2068# DVDD.t465 sky130_fd_pr__pfet_01v8 ad=0.0567 pd=0.69 as=0.0567 ps=0.69 w=0.42 l=0.15
X102 a_3543_n342# a_5773_n1814# a_6023_n1814# DVDD.t170 sky130_fd_pr__pfet_01v8 ad=0.3 pd=2.6 as=0.26 ps=2.52 w=1 l=0.15
X103 a_4697_46# B13.t2 a_3946_174# DGND.t480 sky130_fd_pr__nfet_01v8 ad=0.063 pd=0.72 as=0.0567 ps=0.69 w=0.42 l=0.15
X104 a_6023_n254# A12.t1 DGND.t13 DGND.t12 sky130_fd_pr__nfet_01v8 ad=0.08775 pd=0.92 as=0.08775 ps=0.92 w=0.65 l=0.15
X105 a_2908_n600# a_3874_n1220# a_3832_n828# DVDD.t127 sky130_fd_pr__pfet_01v8 ad=0.0693 pd=0.75 as=0.0441 ps=0.63 w=0.42 l=0.15
X106 a_4363_n828# A15.t5 DVDD.t475 DVDD.t474 sky130_fd_pr__pfet_01v8 ad=0.0567 pd=0.69 as=0.0567 ps=0.69 w=0.42 l=0.15
X107 a_3736_46# A13.t3 DGND.t85 DGND.t84 sky130_fd_pr__nfet_01v8 ad=0.0693 pd=0.75 as=0.1176 ps=1.4 w=0.42 l=0.15
X108 a_185_412# Cin.t0 a_101_46# DVDD.t496 sky130_fd_pr__pfet_01v8 ad=0.0567 pd=0.69 as=0.0567 ps=0.69 w=0.42 l=0.15
X109 a_3832_n3308# B11.t2 a_3736_n3308# DVDD.t37 sky130_fd_pr__pfet_01v8 ad=0.0441 pd=0.63 as=0.0693 ps=0.75 w=0.42 l=0.15
X110 a_1997_n3308# B7.t0 DVDD.t414 DVDD.t413 sky130_fd_pr__pfet_01v8 ad=0.0567 pd=0.69 as=0.1092 ps=1.36 w=0.42 l=0.15
X111 DGND.t99 A9.t0 a_4697_n2434# DGND.t98 sky130_fd_pr__nfet_01v8 ad=0.1596 pd=1.6 as=0.063 ps=0.72 w=0.42 l=0.15
X112 a_315_n4294# A6.t2 DVDD.t122 DVDD.t121 sky130_fd_pr__pfet_01v8 ad=0.135 pd=1.27 as=0.135 ps=1.27 w=1 l=0.15
X113 a_2254_46# a_1557_46# a_1997_46# DGND.t235 sky130_fd_pr__nfet_01v8 ad=0.0693 pd=0.75 as=0.06195 ps=0.715 w=0.42 l=0.15
X114 DGND.t373 A5.t0 a_1479_n2734# DGND.t372 sky130_fd_pr__nfet_01v8 ad=0.08775 pd=0.92 as=0.08775 ps=0.92 w=0.65 l=0.15
X115 a_101_n1194# B2.t6 a_11_n828# DVDD.t435 sky130_fd_pr__pfet_01v8 ad=0.0567 pd=0.69 as=0.063 ps=0.72 w=0.42 l=0.15
X116 DVDD.t459 A2.t3 a_185_n828# DVDD.t458 sky130_fd_pr__pfet_01v8 ad=0.0567 pd=0.69 as=0.0567 ps=0.69 w=0.42 l=0.15
X117 a_3946_n3546# a_3874_n3700# a_4363_n3308# DVDD.t487 sky130_fd_pr__pfet_01v8 ad=0.0567 pd=0.69 as=0.0567 ps=0.69 w=0.42 l=0.15
X118 a_4523_n4294# B11.t3 a_4441_n4294# DVDD.t7 sky130_fd_pr__pfet_01v8 ad=0.135 pd=1.27 as=0.26 ps=2.52 w=1 l=0.15
X119 DGND.t174 a_5773_n574# a_3861_n600# DGND.t173 sky130_fd_pr__nfet_01v8 ad=0.208 pd=1.94 as=0.25025 ps=1.42 w=0.65 l=0.15
X120 a_3669_n2822# a_4441_n4294# a_4691_n4294# DVDD.t358 sky130_fd_pr__pfet_01v8 ad=0.3 pd=2.6 as=0.26 ps=2.52 w=1 l=0.15
X121 DVDD.t462 a_1557_n3674# a_1968_n4294# DVDD.t461 sky130_fd_pr__pfet_01v8 ad=0.26 pd=2.52 as=0.26 ps=2.52 w=1 l=0.15
X122 DVDD.t236 B8.t1 a_5456_n2068# DVDD.t235 sky130_fd_pr__pfet_01v8 ad=0.1092 pd=1.36 as=0.0567 ps=0.69 w=0.42 l=0.15
X123 a_3736_n2068# A9.t1 DVDD.t360 DVDD.t359 sky130_fd_pr__pfet_01v8 ad=0.0693 pd=0.75 as=0.1575 ps=1.59 w=0.42 l=0.15
X124 a_1557_46# B1.t0 a_1467_412# DVDD.t535 sky130_fd_pr__pfet_01v8 ad=0.0567 pd=0.69 as=0.063 ps=0.72 w=0.42 l=0.15
X125 DVDD.t189 A4.t2 a_n41_n3054# DVDD.t188 sky130_fd_pr__pfet_01v8 ad=0.135 pd=1.27 as=0.135 ps=1.27 w=1 l=0.15
X126 DGND.t488 a_4441_n3054# a_3765_n3080# DGND.t487 sky130_fd_pr__nfet_01v8 ad=0.208 pd=1.94 as=0.25025 ps=1.42 w=0.65 l=0.15
X127 a_4204_n3054# a_3946_n2306# DGND.t324 DGND.t323 sky130_fd_pr__nfet_01v8 ad=0.169 pd=1.82 as=0.169 ps=1.82 w=0.65 l=0.15
X128 a_1997_n3308# A7.t2 DVDD.t443 DVDD.t442 sky130_fd_pr__pfet_01v8 ad=0.06195 pd=0.715 as=0.0567 ps=0.69 w=0.42 l=0.15
X129 a_4691_n3054# A9.t2 DVDD.t173 DVDD.t172 sky130_fd_pr__pfet_01v8 ad=0.135 pd=1.27 as=0.135 ps=1.27 w=1 l=0.15
X130 a_3669_n2822# B11.t4 a_4691_n3974# DGND.t462 sky130_fd_pr__nfet_01v8 ad=0.25025 pd=1.42 as=0.08775 ps=0.92 w=0.65 l=0.15
X131 DGND.t407 a_5773_n3054# a_3861_n3080# DGND.t406 sky130_fd_pr__nfet_01v8 ad=0.208 pd=1.94 as=0.25025 ps=1.42 w=0.65 l=0.15
X132 a_3669_n342# B15.t3 a_4691_n1494# DGND.t25 sky130_fd_pr__nfet_01v8 ad=0.25025 pd=1.42 as=0.08775 ps=0.92 w=0.65 l=0.15
X133 a_2459_n254# a_1201_n574# a_2363_n254# DGND.t143 sky130_fd_pr__nfet_01v8 ad=0.08775 pd=0.92 as=0.10725 ps=0.98 w=0.65 l=0.15
X134 a_2254_n1194# a_1557_n1194# a_1997_n828# DVDD.t398 sky130_fd_pr__pfet_01v8 ad=0.0693 pd=0.75 as=0.06195 ps=0.715 w=0.42 l=0.15
X135 DGND.t516 A9.t3 a_4000_n2434# DGND.t515 sky130_fd_pr__nfet_01v8 ad=0.0567 pd=0.69 as=0.06195 ps=0.715 w=0.42 l=0.15
X136 a_3946_174# a_3874_20# a_4363_412# DVDD.t268 sky130_fd_pr__pfet_01v8 ad=0.0567 pd=0.69 as=0.0567 ps=0.69 w=0.42 l=0.15
X137 a_5360_n1194# a_4204_n574# a_5288_n1194# DGND.t207 sky130_fd_pr__nfet_01v8 ad=0.0693 pd=0.75 as=0.0441 ps=0.63 w=0.42 l=0.15
X138 a_5360_n3674# a_4204_n3054# a_5288_n3674# DGND.t271 sky130_fd_pr__nfet_01v8 ad=0.0693 pd=0.75 as=0.0441 ps=0.63 w=0.42 l=0.15
X139 a_1641_n3674# a_636_n4294# a_1557_n3674# DGND.t31 sky130_fd_pr__nfet_01v8 ad=0.0567 pd=0.69 as=0.0567 ps=0.69 w=0.42 l=0.15
X140 DVDD.t464 A6.t3 a_966_n3308# DVDD.t463 sky130_fd_pr__pfet_01v8 ad=0.1575 pd=1.59 as=0.0693 ps=0.75 w=0.42 l=0.15
X141 DGND.t109 B1.t1 a_1261_n600# DGND.t108 sky130_fd_pr__nfet_01v8 ad=0.169 pd=1.82 as=0.08775 ps=0.92 w=0.65 l=0.15
X142 a_3795_n254# a_3765_n600# a_3711_n254# DGND.t400 sky130_fd_pr__nfet_01v8 ad=0.10725 pd=0.98 as=0.08775 ps=0.92 w=0.65 l=0.15
X143 a_1641_n1194# a_636_n1814# a_1557_n1194# DGND.t252 sky130_fd_pr__nfet_01v8 ad=0.0567 pd=0.69 as=0.0567 ps=0.69 w=0.42 l=0.15
X144 a_2422_n1194# B3.t0 a_2350_n1194# DGND.t241 sky130_fd_pr__nfet_01v8 ad=0.0693 pd=0.75 as=0.0441 ps=0.63 w=0.42 l=0.15
X145 a_2422_n3674# B7.t1 a_2350_n3674# DGND.t335 sky130_fd_pr__nfet_01v8 ad=0.0693 pd=0.75 as=0.0441 ps=0.63 w=0.42 l=0.15
X146 a_4000_46# a_3874_20# DGND.t267 DGND.t266 sky130_fd_pr__nfet_01v8 ad=0.0567 pd=0.69 as=0.0567 ps=0.69 w=0.42 l=0.15
X147 DVDD.t30 A8.t1 a_6153_n2068# DVDD.t29 sky130_fd_pr__pfet_01v8 ad=0.1575 pd=1.59 as=0.063 ps=0.72 w=0.42 l=0.15
X148 a_1479_n2734# B5.t3 a_1201_n3054# DGND.t306 sky130_fd_pr__nfet_01v8 ad=0.08775 pd=0.92 as=0.25025 ps=1.42 w=0.65 l=0.15
X149 a_4363_n3308# A11.t3 DVDD.t284 DVDD.t283 sky130_fd_pr__pfet_01v8 ad=0.0567 pd=0.69 as=0.0567 ps=0.69 w=0.42 l=0.15
X150 a_3904_46# a_3874_20# a_3832_46# DGND.t265 sky130_fd_pr__nfet_01v8 ad=0.0693 pd=0.75 as=0.0441 ps=0.63 w=0.42 l=0.15
X151 DVDD.t77 B15.t4 a_4691_n1814# DVDD.t76 sky130_fd_pr__pfet_01v8 ad=0.26 pd=2.52 as=0.135 ps=1.27 w=1 l=0.15
X152 a_1467_412# A1.t1 DVDD.t429 DVDD.t428 sky130_fd_pr__pfet_01v8 ad=0.063 pd=0.72 as=0.1575 ps=1.59 w=0.42 l=0.15
X153 DGND.t287 A0.t4 a_966_46# DGND.t286 sky130_fd_pr__nfet_01v8 ad=0.1176 pd=1.4 as=0.0693 ps=0.75 w=0.42 l=0.15
X154 a_3874_n2460# a_5402_n2306# DVDD.t196 DVDD.t195 sky130_fd_pr__pfet_01v8 ad=0.26 pd=2.52 as=0.26 ps=2.52 w=1 l=0.15
X155 a_2422_46# B1.t2 a_2350_46# DGND.t163 sky130_fd_pr__nfet_01v8 ad=0.0693 pd=0.75 as=0.0441 ps=0.63 w=0.42 l=0.15
X156 a_5456_n2068# a_2995_n4294# DVDD.t49 DVDD.t48 sky130_fd_pr__pfet_01v8 ad=0.0567 pd=0.69 as=0.0567 ps=0.69 w=0.42 l=0.15
X157 a_1201_n1814# a_1261_n1840# DGND.t428 DGND.t427 sky130_fd_pr__nfet_01v8 ad=0.25025 pd=1.42 as=0.208 ps=1.94 w=0.65 l=0.15
X158 a_1201_n4294# a_1261_n4320# DGND.t380 DGND.t379 sky130_fd_pr__nfet_01v8 ad=0.25025 pd=1.42 as=0.208 ps=1.94 w=0.65 l=0.15
X159 a_966_n828# B2.t7 a_894_n828# DVDD.t12 sky130_fd_pr__pfet_01v8 ad=0.0693 pd=0.75 as=0.0441 ps=0.63 w=0.42 l=0.15
X160 a_n41_n3054# B4.t2 DVDD.t387 DVDD.t386 sky130_fd_pr__pfet_01v8 ad=0.135 pd=1.27 as=0.26 ps=2.52 w=1 l=0.15
X161 a_n41_n3054# a_n71_n3080# a_n131_n3054# DVDD.t313 sky130_fd_pr__pfet_01v8 ad=0.26 pd=2.52 as=0.3 ps=2.6 w=1 l=0.15
X162 a_11_n828# A2.t4 DVDD.t318 DVDD.t317 sky130_fd_pr__pfet_01v8 ad=0.063 pd=0.72 as=0.1575 ps=1.59 w=0.42 l=0.15
X163 DVDD.t493 A14.t3 a_5456_n828# DVDD.t492 sky130_fd_pr__pfet_01v8 ad=0.0567 pd=0.69 as=0.06195 ps=0.715 w=0.42 l=0.15
X164 a_n71_n3080# B4.t3 a_315_n3054# DVDD.t159 sky130_fd_pr__pfet_01v8 ad=0.26 pd=2.52 as=0.135 ps=1.27 w=1 l=0.15
X165 a_5855_n574# B12.t1 a_5773_n574# DVDD.t18 sky130_fd_pr__pfet_01v8 ad=0.135 pd=1.27 as=0.26 ps=2.52 w=1 l=0.15
X166 DVDD.t164 B15.t5 a_4000_n828# DVDD.t163 sky130_fd_pr__pfet_01v8 ad=0.1092 pd=1.36 as=0.0567 ps=0.69 w=0.42 l=0.15
X167 DVDD.t141 A10.t4 a_5456_n3308# DVDD.t140 sky130_fd_pr__pfet_01v8 ad=0.0567 pd=0.69 as=0.06195 ps=0.715 w=0.42 l=0.15
X168 a_894_n3308# a_143_n3516# a_798_n3674# DVDD.t213 sky130_fd_pr__pfet_01v8 ad=0.0441 pd=0.63 as=0.0693 ps=0.75 w=0.42 l=0.15
X169 DVDD.t343 A9.t4 a_4523_n3054# DVDD.t342 sky130_fd_pr__pfet_01v8 ad=0.135 pd=1.27 as=0.135 ps=1.27 w=1 l=0.15
X170 DVDD.t451 a_3861_n600# a_3322_n1582# DVDD.t450 sky130_fd_pr__pfet_01v8 ad=0.3 pd=2.6 as=0.165 ps=1.33 w=1 l=0.15
X171 DGND.t210 a_143_n3516# a_541_n3674# DGND.t209 sky130_fd_pr__nfet_01v8 ad=0.0567 pd=0.69 as=0.0567 ps=0.69 w=0.42 l=0.15
X172 DGND.t2 a_143_n1036# a_541_n1194# DGND.t1 sky130_fd_pr__nfet_01v8 ad=0.0567 pd=0.69 as=0.0567 ps=0.69 w=0.42 l=0.15
X173 a_6023_n2734# A8.t2 DGND.t79 DGND.t78 sky130_fd_pr__nfet_01v8 ad=0.08775 pd=0.92 as=0.08775 ps=0.92 w=0.65 l=0.15
X174 a_6153_46# B12.t2 a_5402_174# DGND.t290 sky130_fd_pr__nfet_01v8 ad=0.063 pd=0.72 as=0.0567 ps=0.69 w=0.42 l=0.15
X175 a_1557_n3674# B7.t2 a_1467_n3674# DGND.t367 sky130_fd_pr__nfet_01v8 ad=0.0567 pd=0.69 as=0.063 ps=0.72 w=0.42 l=0.15
X176 a_1557_n1194# B3.t1 a_1467_n1194# DGND.t384 sky130_fd_pr__nfet_01v8 ad=0.0567 pd=0.69 as=0.063 ps=0.72 w=0.42 l=0.15
X177 a_798_n2434# a_101_n2434# a_541_n2068# DVDD.t316 sky130_fd_pr__pfet_01v8 ad=0.0693 pd=0.75 as=0.06195 ps=0.715 w=0.42 l=0.15
X178 a_1641_n1194# B3.t2 DGND.t509 DGND.t508 sky130_fd_pr__nfet_01v8 ad=0.1092 pd=1.36 as=0.0567 ps=0.69 w=0.42 l=0.15
X179 a_1641_n3674# B7.t3 DGND.t294 DGND.t293 sky130_fd_pr__nfet_01v8 ad=0.1092 pd=1.36 as=0.0567 ps=0.69 w=0.42 l=0.15
X180 a_2497_n1775# a_2315_n1775# DVDD.t353 DVDD.t352 sky130_fd_pr__pfet_01v8 ad=0.0441 pd=0.63 as=0.0693 ps=0.75 w=0.42 l=0.15
X181 a_4000_n1194# a_3874_n1220# DGND.t135 DGND.t134 sky130_fd_pr__nfet_01v8 ad=0.0567 pd=0.69 as=0.0567 ps=0.69 w=0.42 l=0.15
X182 a_4000_n3674# a_3874_n3700# DGND.t484 DGND.t483 sky130_fd_pr__nfet_01v8 ad=0.0567 pd=0.69 as=0.0567 ps=0.69 w=0.42 l=0.15
X183 a_11_n3308# A6.t4 DVDD.t64 DVDD.t63 sky130_fd_pr__pfet_01v8 ad=0.063 pd=0.72 as=0.1575 ps=1.59 w=0.42 l=0.15
X184 a_541_412# B0.t1 DVDD.t71 DVDD.t70 sky130_fd_pr__pfet_01v8 ad=0.0567 pd=0.69 as=0.1092 ps=1.36 w=0.42 l=0.15
X185 a_541_n2434# B4.t4 DGND.t311 DGND.t310 sky130_fd_pr__nfet_01v8 ad=0.0567 pd=0.69 as=0.1092 ps=1.36 w=0.42 l=0.15
X186 a_1997_46# B1.t3 DGND.t292 DGND.t291 sky130_fd_pr__nfet_01v8 ad=0.0567 pd=0.69 as=0.1092 ps=1.36 w=0.42 l=0.15
X187 DVDD.t327 a_3226_n4062# a_3177_n4294.t1 DVDD.t326 sky130_fd_pr__pfet_01v8 ad=0.15835 pd=1.395 as=0.26 ps=2.52 w=1 l=0.15
X188 DGND.t477 A15.t6 a_4697_n1194# DGND.t476 sky130_fd_pr__nfet_01v8 ad=0.1596 pd=1.6 as=0.063 ps=0.72 w=0.42 l=0.15
X189 DGND.t281 A11.t4 a_4697_n3674# DGND.t280 sky130_fd_pr__nfet_01v8 ad=0.1596 pd=1.6 as=0.063 ps=0.72 w=0.42 l=0.15
X190 a_3832_n2068# B9.t4 a_3736_n2068# DVDD.t328 sky130_fd_pr__pfet_01v8 ad=0.0441 pd=0.63 as=0.0693 ps=0.75 w=0.42 l=0.15
X191 a_1997_n2068# B5.t4 DVDD.t181 DVDD.t180 sky130_fd_pr__pfet_01v8 ad=0.0567 pd=0.69 as=0.1092 ps=1.36 w=0.42 l=0.15
X192 DGND.t426 A1.t2 a_1479_n254# DGND.t425 sky130_fd_pr__nfet_01v8 ad=0.08775 pd=0.92 as=0.08775 ps=0.92 w=0.65 l=0.15
X193 a_3627_n254# a_3543_n342# DGND.t137 DGND.t136 sky130_fd_pr__nfet_01v8 ad=0.08775 pd=0.92 as=0.169 ps=1.82 w=0.65 l=0.15
X194 a_541_46# B0.t2 DGND.t168 DGND.t167 sky130_fd_pr__nfet_01v8 ad=0.0567 pd=0.69 as=0.1092 ps=1.36 w=0.42 l=0.15
X195 DGND.t27 A12.t2 a_5456_46# DGND.t26 sky130_fd_pr__nfet_01v8 ad=0.0567 pd=0.69 as=0.06195 ps=0.715 w=0.42 l=0.15
X196 a_147_n254# B0.t3 a_n131_n574# DGND.t166 sky130_fd_pr__nfet_01v8 ad=0.08775 pd=0.92 as=0.25025 ps=1.42 w=0.65 l=0.15
X197 DGND.t438 A3.t2 a_1479_n1494# DGND.t437 sky130_fd_pr__nfet_01v8 ad=0.08775 pd=0.92 as=0.08775 ps=0.92 w=0.65 l=0.15
X198 DGND.t388 A7.t3 a_1479_n3974# DGND.t387 sky130_fd_pr__nfet_01v8 ad=0.08775 pd=0.92 as=0.08775 ps=0.92 w=0.65 l=0.15
X199 a_966_n3308# B6.t3 a_894_n3308# DVDD.t483 sky130_fd_pr__pfet_01v8 ad=0.0693 pd=0.75 as=0.0441 ps=0.63 w=0.42 l=0.15
X200 a_2254_n2434# a_1557_n2434# a_1997_n2434# DGND.t214 sky130_fd_pr__nfet_01v8 ad=0.0693 pd=0.75 as=0.06195 ps=0.715 w=0.42 l=0.15
X201 a_2350_412# a_636_n574# a_2254_46# DVDD.t144 sky130_fd_pr__pfet_01v8 ad=0.0441 pd=0.63 as=0.0693 ps=0.75 w=0.42 l=0.15
X202 a_3946_n2306# a_3874_n2460# a_4363_n2068# DVDD.t261 sky130_fd_pr__pfet_01v8 ad=0.0567 pd=0.69 as=0.0567 ps=0.69 w=0.42 l=0.15
X203 a_5288_n2434# B8.t2 a_5192_n2434# DGND.t539 sky130_fd_pr__nfet_01v8 ad=0.0441 pd=0.63 as=0.0693 ps=0.75 w=0.42 l=0.15
X204 a_5192_n3308# A10.t5 DVDD.t99 DVDD.t98 sky130_fd_pr__pfet_01v8 ad=0.0693 pd=0.75 as=0.1575 ps=1.59 w=0.42 l=0.15
X205 a_1641_n828# B3.t3 DVDD.t325 DVDD.t324 sky130_fd_pr__pfet_01v8 ad=0.1092 pd=1.36 as=0.0567 ps=0.69 w=0.42 l=0.15
X206 a_2254_46# a_1557_46# a_1997_412# DVDD.t240 sky130_fd_pr__pfet_01v8 ad=0.0693 pd=0.75 as=0.06195 ps=0.715 w=0.42 l=0.15
X207 a_5360_46# a_3177_n4294.t2 a_5288_412# DVDD.t150 sky130_fd_pr__pfet_01v8 ad=0.0693 pd=0.75 as=0.0441 ps=0.63 w=0.42 l=0.15
X208 a_894_46# Cin.t1 a_798_46# DGND.t403 sky130_fd_pr__nfet_01v8 ad=0.0441 pd=0.63 as=0.0693 ps=0.75 w=0.42 l=0.15
X209 DVDD.t101 A6.t5 a_n41_n4294# DVDD.t100 sky130_fd_pr__pfet_01v8 ad=0.135 pd=1.27 as=0.135 ps=1.27 w=1 l=0.15
X210 DGND.t366 a_4441_n4294# a_3669_n2822# DGND.t365 sky130_fd_pr__nfet_01v8 ad=0.208 pd=1.94 as=0.25025 ps=1.42 w=0.65 l=0.15
X211 DVDD.t441 A7.t4 a_1641_n3308# DVDD.t440 sky130_fd_pr__pfet_01v8 ad=0.0567 pd=0.69 as=0.0567 ps=0.69 w=0.42 l=0.15
X212 a_2569_n1775# a_1968_n1814# a_2497_n1775# DVDD.t43 sky130_fd_pr__pfet_01v8 ad=0.1932 pd=1.34 as=0.0441 ps=0.63 w=0.42 l=0.15
X213 a_3765_n600# a_4441_n574# a_4691_n574# DVDD.t137 sky130_fd_pr__pfet_01v8 ad=0.3 pd=2.6 as=0.26 ps=2.52 w=1 l=0.15
X214 DGND.t145 a_4441_n1814# a_3669_n342# DGND.t144 sky130_fd_pr__nfet_01v8 ad=0.208 pd=1.94 as=0.25025 ps=1.42 w=0.65 l=0.15
X215 a_5192_46# A12.t3 DGND.t170 DGND.t169 sky130_fd_pr__nfet_01v8 ad=0.0693 pd=0.75 as=0.1176 ps=1.4 w=0.42 l=0.15
X216 DGND.t300 A12.t4 a_5773_n574# DGND.t299 sky130_fd_pr__nfet_01v8 ad=0.08775 pd=0.92 as=0.08775 ps=0.92 w=0.65 l=0.15
X217 a_798_n1194# a_101_n1194# a_541_n828# DVDD.t375 sky130_fd_pr__pfet_01v8 ad=0.0693 pd=0.75 as=0.06195 ps=0.715 w=0.42 l=0.15
X218 a_2497_n4255# a_2315_n4255# DVDD.t5 DVDD.t4 sky130_fd_pr__pfet_01v8 ad=0.0441 pd=0.63 as=0.0693 ps=0.75 w=0.42 l=0.15
X219 a_3434_n4026# a_3946_n3546# DGND.t263 DGND.t262 sky130_fd_pr__nfet_01v8 ad=0.169 pd=1.82 as=0.169 ps=1.82 w=0.65 l=0.15
X220 DGND.t418 B5.t5 a_1261_n3080# DGND.t417 sky130_fd_pr__nfet_01v8 ad=0.169 pd=1.82 as=0.08775 ps=0.92 w=0.65 l=0.15
X221 a_1997_n2068# A5.t1 DVDD.t334 DVDD.t333 sky130_fd_pr__pfet_01v8 ad=0.06195 pd=0.715 as=0.0567 ps=0.69 w=0.42 l=0.15
X222 a_3434_n1546# a_3946_n1066# DGND.t116 DGND.t115 sky130_fd_pr__nfet_01v8 ad=0.169 pd=1.82 as=0.169 ps=1.82 w=0.65 l=0.15
X223 a_4691_n4294# A11.t5 DVDD.t282 DVDD.t281 sky130_fd_pr__pfet_01v8 ad=0.135 pd=1.27 as=0.135 ps=1.27 w=1 l=0.15
X224 DVDD.t105 A3.t3 a_1291_n1814# DVDD.t104 sky130_fd_pr__pfet_01v8 ad=0.135 pd=1.27 as=0.135 ps=1.27 w=1 l=0.15
X225 a_3874_20# a_5402_174# DVDD.t348 DVDD.t347 sky130_fd_pr__pfet_01v8 ad=0.26 pd=2.52 as=0.26 ps=2.52 w=1 l=0.15
X226 DGND.t256 a_5773_n4294# a_3543_n2822# DGND.t255 sky130_fd_pr__nfet_01v8 ad=0.208 pd=1.94 as=0.25025 ps=1.42 w=0.65 l=0.15
X227 a_3861_n3080# a_5773_n3054# a_6023_n3054# DVDD.t407 sky130_fd_pr__pfet_01v8 ad=0.3 pd=2.6 as=0.26 ps=2.52 w=1 l=0.15
X228 DGND.t172 a_5773_n1814# a_3543_n342# DGND.t171 sky130_fd_pr__nfet_01v8 ad=0.208 pd=1.94 as=0.25025 ps=1.42 w=0.65 l=0.15
X229 a_4363_412# A13.t4 DVDD.t36 DVDD.t35 sky130_fd_pr__pfet_01v8 ad=0.0567 pd=0.69 as=0.0567 ps=0.69 w=0.42 l=0.15
X230 DGND.t150 a_636_n574# a_1997_46# DGND.t149 sky130_fd_pr__nfet_01v8 ad=0.0567 pd=0.69 as=0.0567 ps=0.69 w=0.42 l=0.15
X231 DGND.t254 A15.t7 a_4000_n1194# DGND.t253 sky130_fd_pr__nfet_01v8 ad=0.0567 pd=0.69 as=0.06195 ps=0.715 w=0.42 l=0.15
X232 DGND.t279 A11.t6 a_4000_n3674# DGND.t278 sky130_fd_pr__nfet_01v8 ad=0.0567 pd=0.69 as=0.06195 ps=0.715 w=0.42 l=0.15
X233 DVDD.t437 A4.t3 a_966_n2068# DVDD.t436 sky130_fd_pr__pfet_01v8 ad=0.1575 pd=1.59 as=0.0693 ps=0.75 w=0.42 l=0.15
X234 DVDD.t256 A15.t8 a_4000_n828# DVDD.t255 sky130_fd_pr__pfet_01v8 ad=0.0567 pd=0.69 as=0.06195 ps=0.715 w=0.42 l=0.15
X235 a_2363_n2734# a_n131_n3054# a_2273_n2734# DGND.t474 sky130_fd_pr__nfet_01v8 ad=0.10725 pd=0.98 as=0.195 ps=1.9 w=0.65 l=0.15
X236 a_5456_412# a_5402_174# a_5360_46# DVDD.t346 sky130_fd_pr__pfet_01v8 ad=0.06195 pd=0.715 as=0.0693 ps=0.75 w=0.42 l=0.15
X237 a_5360_46# a_3177_n4294.t3 a_5288_46# DGND.t511 sky130_fd_pr__nfet_01v8 ad=0.0693 pd=0.75 as=0.0441 ps=0.63 w=0.42 l=0.15
X238 a_6153_n828# B14.t1 a_5402_n1066# DVDD.t532 sky130_fd_pr__pfet_01v8 ad=0.063 pd=0.72 as=0.0567 ps=0.69 w=0.42 l=0.15
X239 a_541_n2434# A4.t4 DGND.t536 DGND.t535 sky130_fd_pr__nfet_01v8 ad=0.06195 pd=0.715 as=0.0567 ps=0.69 w=0.42 l=0.15
X240 a_1479_n1494# B3.t4 a_1201_n1814# DGND.t73 sky130_fd_pr__nfet_01v8 ad=0.08775 pd=0.92 as=0.25025 ps=1.42 w=0.65 l=0.15
X241 a_1479_n3974# B7.t4 a_1201_n4294# DGND.t175 sky130_fd_pr__nfet_01v8 ad=0.08775 pd=0.92 as=0.25025 ps=1.42 w=0.65 l=0.15
X242 a_3434_n1546# a_3946_n1066# DVDD.t112 DVDD.t111 sky130_fd_pr__pfet_01v8 ad=0.26 pd=2.52 as=0.26 ps=2.52 w=1 l=0.15
X243 a_3861_n3080# B8.t3 a_6023_n2734# DGND.t96 sky130_fd_pr__nfet_01v8 ad=0.25025 pd=1.42 as=0.08775 ps=0.92 w=0.65 l=0.15
X244 a_4363_n2068# A9.t5 DVDD.t57 DVDD.t56 sky130_fd_pr__pfet_01v8 ad=0.0567 pd=0.69 as=0.0567 ps=0.69 w=0.42 l=0.15
X245 a_1467_n3308# A7.t5 DVDD.t389 DVDD.t388 sky130_fd_pr__pfet_01v8 ad=0.063 pd=0.72 as=0.1575 ps=1.59 w=0.42 l=0.15
X246 DGND.t328 B9.t5 a_4000_n2434# DGND.t327 sky130_fd_pr__nfet_01v8 ad=0.1092 pd=1.36 as=0.0567 ps=0.69 w=0.42 l=0.15