*SPEF "ieee 1481-1999"
*DESIGN "fa16"
*DATE "08:53:08 Thursday October 23, 2025"
*VENDOR "The OpenROAD Project"
*PROGRAM "OpenROAD"
*VERSION "b16bda7e82721d10566ff7e2b68f1ff0be9f9e38"
*DESIGN_FLOW "NAME_SCOPE LOCAL" "PIN_CAP NONE"
*DIVIDER /
*DELIMITER :
*BUS_DELIMITER []
*T_UNIT 1 NS
*C_UNIT 1 PF
*R_UNIT 1 OHM
*L_UNIT 1 HENRY

*NAME_MAP
*1 A[0]
*2 A[10]
*3 A[11]
*4 A[12]
*5 A[13]
*6 A[14]
*7 A[15]
*8 A[1]
*9 A[2]
*10 A[3]
*11 A[4]
*12 A[5]
*13 A[6]
*14 A[7]
*15 A[8]
*16 A[9]
*17 B[0]
*18 B[10]
*19 B[11]
*20 B[12]
*21 B[13]
*22 B[14]
*23 B[15]
*24 B[1]
*25 B[2]
*26 B[3]
*27 B[4]
*28 B[5]
*29 B[6]
*30 B[7]
*31 B[8]
*32 B[9]
*33 CLK
*34 Cin
*35 Cout
*36 S[0]
*37 S[10]
*38 S[11]
*39 S[12]
*40 S[13]
*41 S[14]
*42 S[15]
*43 S[1]
*44 S[2]
*45 S[3]
*46 S[4]
*47 S[5]
*48 S[6]
*49 S[7]
*50 S[8]
*51 S[9]
*54 _000_
*55 _001_
*56 _002_
*57 _003_
*58 _004_
*59 _005_
*60 _006_
*61 _007_
*62 _008_
*63 _009_
*64 _010_
*65 _011_
*66 _012_
*67 _013_
*68 _014_
*69 _015_
*70 _016_
*71 _017_
*72 _018_
*73 _019_
*74 _020_
*75 _021_
*76 _022_
*77 _023_
*78 _024_
*79 _025_
*80 _026_
*81 _027_
*82 _028_
*83 _029_
*84 _030_
*85 _031_
*86 _032_
*87 _033_
*88 _034_
*89 _035_
*90 _036_
*91 _037_
*92 _038_
*93 _039_
*94 _040_
*95 _041_
*96 _042_
*97 _043_
*98 _044_
*99 _045_
*100 _046_
*101 _047_
*102 _048_
*103 _049_
*104 _050_
*105 _051_
*106 _052_
*107 _053_
*108 _054_
*109 _055_
*110 _056_
*111 _057_
*112 _058_
*113 _059_
*114 _060_
*115 _061_
*116 _062_
*117 _063_
*118 _064_
*119 _065_
*120 _066_
*121 _067_
*122 _068_
*123 _069_
*124 _070_
*125 clknet_0_CLK
*126 clknet_2_0__leaf_CLK
*127 clknet_2_1__leaf_CLK
*128 clknet_2_2__leaf_CLK
*129 clknet_2_3__leaf_CLK
*130 net1
*131 net10
*132 net11
*133 net12
*134 net13
*135 net14
*136 net15
*137 net16
*138 net17
*139 net18
*140 net19
*141 net2
*142 net20
*143 net21
*144 net22
*145 net23
*146 net24
*147 net25
*148 net26
*149 net27
*150 net28
*151 net29
*152 net3
*153 net30
*154 net31
*155 net32
*156 net33
*157 net34
*158 net35
*159 net36
*160 net37
*161 net38
*162 net39
*163 net4
*164 net40
*165 net41
*166 net42
*167 net43
*168 net44
*169 net45
*170 net46
*171 net47
*172 net48
*173 net49
*174 net5
*175 net50
*176 net6
*177 net7
*178 net8
*179 net9
*180 x1_0\.A
*181 x1_0\.B
*182 x1_0\.Cin
*183 x1_0\.S
*184 x1_1\.A
*185 x1_1\.B
*186 x1_1\.S
*187 x1_10\.A
*188 x1_10\.B
*189 x1_10\.S
*190 x1_11\.A
*191 x1_11\.B
*192 x1_11\.S
*193 x1_12\.A
*194 x1_12\.B
*195 x1_12\.S
*196 x1_13\.A
*197 x1_13\.B
*198 x1_13\.S
*199 x1_14\.A
*200 x1_14\.B
*201 x1_14\.S
*202 x1_15\.A
*203 x1_15\.B
*204 x1_15\.Cout
*205 x1_15\.S
*206 x1_2\.A
*207 x1_2\.B
*208 x1_2\.S
*209 x1_3\.A
*210 x1_3\.B
*211 x1_3\.S
*212 x1_4\.A
*213 x1_4\.B
*214 x1_4\.S
*215 x1_5\.A
*216 x1_5\.B
*217 x1_5\.S
*218 x1_6\.A
*219 x1_6\.B
*220 x1_6\.S
*221 x1_7\.A
*222 x1_7\.B
*223 x1_7\.S
*224 x1_8\.A
*225 x1_8\.B
*226 x1_8\.S
*227 x1_9\.A
*228 x1_9\.B
*229 x1_9\.S
*230 FILLER_0_0_101
*231 FILLER_0_0_110
*232 FILLER_0_0_113
*233 FILLER_0_0_119
*234 FILLER_0_0_128
*235 FILLER_0_0_20
*236 FILLER_0_0_24
*237 FILLER_0_0_51
*238 FILLER_0_0_57
*239 FILLER_0_0_6
*240 FILLER_0_0_78
*241 FILLER_0_0_83
*242 FILLER_0_0_85
*243 FILLER_0_0_92
*244 FILLER_0_10_109
*245 FILLER_0_10_121
*246 FILLER_0_10_20
*247 FILLER_0_10_29
*248 FILLER_0_10_3
*249 FILLER_0_10_41
*250 FILLER_0_10_53
*251 FILLER_0_10_61
*252 FILLER_0_10_82
*253 FILLER_0_10_85
*254 FILLER_0_10_97
*255 FILLER_0_11_110
*256 FILLER_0_11_116
*257 FILLER_0_11_12
*258 FILLER_0_11_128
*259 FILLER_0_11_26
*260 FILLER_0_11_34
*261 FILLER_0_11_51
*262 FILLER_0_11_57
*263 FILLER_0_11_6
*264 FILLER_0_11_92
*265 FILLER_0_12_120
*266 FILLER_0_12_128
*267 FILLER_0_12_27
*268 FILLER_0_12_32
*269 FILLER_0_12_54
*270 FILLER_0_12_6
*271 FILLER_0_12_64
*272 FILLER_0_12_78
*273 FILLER_0_12_90
*274 FILLER_0_13_104
*275 FILLER_0_13_111
*276 FILLER_0_13_119
*277 FILLER_0_13_127
*278 FILLER_0_13_26
*279 FILLER_0_13_38
*280 FILLER_0_13_50
*281 FILLER_0_13_57
*282 FILLER_0_13_96
*283 FILLER_0_14_109
*284 FILLER_0_14_128
*285 FILLER_0_14_26
*286 FILLER_0_14_29
*287 FILLER_0_14_37
*288 FILLER_0_14_56
*289 FILLER_0_14_6
*290 FILLER_0_14_68
*291 FILLER_0_14_83
*292 FILLER_0_14_91
*293 FILLER_0_15_109
*294 FILLER_0_15_113
*295 FILLER_0_15_119
*296 FILLER_0_15_127
*297 FILLER_0_15_22
*298 FILLER_0_15_34
*299 FILLER_0_15_53
*300 FILLER_0_15_57
*301 FILLER_0_15_69
*302 FILLER_0_15_82
*303 FILLER_0_15_94
*304 FILLER_0_16_118
*305 FILLER_0_16_126
*306 FILLER_0_16_25
*307 FILLER_0_16_29
*308 FILLER_0_16_55
*309 FILLER_0_16_6
*310 FILLER_0_16_67
*311 FILLER_0_16_79
*312 FILLER_0_16_83
*313 FILLER_0_16_85
*314 FILLER_0_17_107
*315 FILLER_0_17_111
*316 FILLER_0_17_125
*317 FILLER_0_17_18
*318 FILLER_0_17_30
*319 FILLER_0_17_38
*320 FILLER_0_17_57
*321 FILLER_0_17_6
*322 FILLER_0_17_69
*323 FILLER_0_17_81
*324 FILLER_0_17_93
*325 FILLER_0_17_99
*326 FILLER_0_18_108
*327 FILLER_0_18_117
*328 FILLER_0_18_125
*329 FILLER_0_18_19
*330 FILLER_0_18_27
*331 FILLER_0_18_29
*332 FILLER_0_18_33
*333 FILLER_0_18_50
*334 FILLER_0_18_67
*335 FILLER_0_18_85
*336 FILLER_0_18_97
*337 FILLER_0_19_108
*338 FILLER_0_19_12
*339 FILLER_0_19_34
*340 FILLER_0_19_57
*341 FILLER_0_19_90
*342 FILLER_0_1_105
*343 FILLER_0_1_111
*344 FILLER_0_1_113
*345 FILLER_0_1_125
*346 FILLER_0_1_19
*347 FILLER_0_1_36
*348 FILLER_0_1_57
*349 FILLER_0_1_61
*350 FILLER_0_1_81
*351 FILLER_0_1_93
*352 FILLER_0_20_121
*353 FILLER_0_20_128
*354 FILLER_0_20_26
*355 FILLER_0_20_29
*356 FILLER_0_20_46
*357 FILLER_0_20_54
*358 FILLER_0_20_72
*359 FILLER_0_20_85
*360 FILLER_0_20_9
*361 FILLER_0_21_101
*362 FILLER_0_21_110
*363 FILLER_0_21_26
*364 FILLER_0_21_3
*365 FILLER_0_21_32
*366 FILLER_0_21_38
*367 FILLER_0_21_47
*368 FILLER_0_21_57
*369 FILLER_0_21_61
*370 FILLER_0_21_65
*371 FILLER_0_21_74
*372 FILLER_0_21_83
*373 FILLER_0_21_85
*374 FILLER_0_21_92
*375 FILLER_0_2_10
*376 FILLER_0_2_101
*377 FILLER_0_2_109
*378 FILLER_0_2_128
*379 FILLER_0_2_27
*380 FILLER_0_2_45
*381 FILLER_0_2_51
*382 FILLER_0_2_6
*383 FILLER_0_3_105
*384 FILLER_0_3_111
*385 FILLER_0_3_113
*386 FILLER_0_3_125
*387 FILLER_0_3_23
*388 FILLER_0_3_3
*389 FILLER_0_3_35
*390 FILLER_0_3_47
*391 FILLER_0_3_55
*392 FILLER_0_3_57
*393 FILLER_0_3_69
*394 FILLER_0_3_81
*395 FILLER_0_3_93
*396 FILLER_0_4_109
*397 FILLER_0_4_121
*398 FILLER_0_4_21
*399 FILLER_0_4_27
*400 FILLER_0_4_29
*401 FILLER_0_4_37
*402 FILLER_0_4_55
*403 FILLER_0_4_67
*404 FILLER_0_4_79
*405 FILLER_0_4_83
*406 FILLER_0_4_85
*407 FILLER_0_4_9
*408 FILLER_0_4_97
*409 FILLER_0_5_108
*410 FILLER_0_5_113
*411 FILLER_0_5_125
*412 FILLER_0_5_19
*413 FILLER_0_5_27
*414 FILLER_0_5_60
*415 FILLER_0_5_72
*416 FILLER_0_5_84
*417 FILLER_0_5_96
*418 FILLER_0_6_127
*419 FILLER_0_6_16
*420 FILLER_0_6_20
*421 FILLER_0_6_27
*422 FILLER_0_6_29
*423 FILLER_0_6_3
*424 FILLER_0_6_33
*425 FILLER_0_6_70
*426 FILLER_0_6_77
*427 FILLER_0_6_83
*428 FILLER_0_6_85
*429 FILLER_0_6_93
*430 FILLER_0_7_57
*431 FILLER_0_8_103
*432 FILLER_0_8_125
*433 FILLER_0_8_14
*434 FILLER_0_8_25
*435 FILLER_0_8_29
*436 FILLER_0_8_41
*437 FILLER_0_8_51
*438 FILLER_0_8_56
*439 FILLER_0_8_6
*440 FILLER_0_8_61
*441 FILLER_0_8_76
*442 FILLER_0_8_85
*443 FILLER_0_8_93
*444 FILLER_0_9_105
*445 FILLER_0_9_111
*446 FILLER_0_9_113
*447 FILLER_0_9_125
*448 FILLER_0_9_18
*449 FILLER_0_9_30
*450 FILLER_0_9_47
*451 FILLER_0_9_55
*452 FILLER_0_9_57
*453 FILLER_0_9_6
*454 FILLER_0_9_61
*455 FILLER_0_9_70
*456 FILLER_0_9_74
*457 FILLER_0_9_81
*458 FILLER_0_9_93
*459 PHY_EDGE_ROW_0_Left_22
*460 PHY_EDGE_ROW_0_Right_0
*461 PHY_EDGE_ROW_10_Left_32
*462 PHY_EDGE_ROW_10_Right_10
*463 PHY_EDGE_ROW_11_Left_33
*464 PHY_EDGE_ROW_11_Right_11
*465 PHY_EDGE_ROW_12_Left_34
*466 PHY_EDGE_ROW_12_Right_12
*467 PHY_EDGE_ROW_13_Left_35
*468 PHY_EDGE_ROW_13_Right_13
*469 PHY_EDGE_ROW_14_Left_36
*470 PHY_EDGE_ROW_14_Right_14
*471 PHY_EDGE_ROW_15_Left_37
*472 PHY_EDGE_ROW_15_Right_15
*473 PHY_EDGE_ROW_16_Left_38
*474 PHY_EDGE_ROW_16_Right_16
*475 PHY_EDGE_ROW_17_Left_39
*476 PHY_EDGE_ROW_17_Right_17
*477 PHY_EDGE_ROW_18_Left_40
*478 PHY_EDGE_ROW_18_Right_18
*479 PHY_EDGE_ROW_19_Left_41
*480 PHY_EDGE_ROW_19_Right_19
*481 PHY_EDGE_ROW_1_Left_23
*482 PHY_EDGE_ROW_1_Right_1
*483 PHY_EDGE_ROW_20_Left_42
*484 PHY_EDGE_ROW_20_Right_20
*485 PHY_EDGE_ROW_21_Left_43
*486 PHY_EDGE_ROW_21_Right_21
*487 PHY_EDGE_ROW_2_Left_24
*488 PHY_EDGE_ROW_2_Right_2
*489 PHY_EDGE_ROW_3_Left_25
*490 PHY_EDGE_ROW_3_Right_3
*491 PHY_EDGE_ROW_4_Left_26
*492 PHY_EDGE_ROW_4_Right_4
*493 PHY_EDGE_ROW_5_Left_27
*494 PHY_EDGE_ROW_5_Right_5
*495 PHY_EDGE_ROW_6_Left_28
*496 PHY_EDGE_ROW_6_Right_6
*497 PHY_EDGE_ROW_7_Left_29
*498 PHY_EDGE_ROW_7_Right_7
*499 PHY_EDGE_ROW_8_Left_30
*500 PHY_EDGE_ROW_8_Right_8
*501 PHY_EDGE_ROW_9_Left_31
*502 PHY_EDGE_ROW_9_Right_9
*503 TAP_TAPCELL_ROW_0_44
*504 TAP_TAPCELL_ROW_0_45
*505 TAP_TAPCELL_ROW_0_46
*506 TAP_TAPCELL_ROW_0_47
*507 TAP_TAPCELL_ROW_10_66
*508 TAP_TAPCELL_ROW_10_67
*509 TAP_TAPCELL_ROW_11_68
*510 TAP_TAPCELL_ROW_11_69
*511 TAP_TAPCELL_ROW_12_70
*512 TAP_TAPCELL_ROW_12_71
*513 TAP_TAPCELL_ROW_13_72
*514 TAP_TAPCELL_ROW_13_73
*515 TAP_TAPCELL_ROW_14_74
*516 TAP_TAPCELL_ROW_14_75
*517 TAP_TAPCELL_ROW_15_76
*518 TAP_TAPCELL_ROW_15_77
*519 TAP_TAPCELL_ROW_16_78
*520 TAP_TAPCELL_ROW_16_79
*521 TAP_TAPCELL_ROW_17_80
*522 TAP_TAPCELL_ROW_17_81
*523 TAP_TAPCELL_ROW_18_82
*524 TAP_TAPCELL_ROW_18_83
*525 TAP_TAPCELL_ROW_19_84
*526 TAP_TAPCELL_ROW_19_85
*527 TAP_TAPCELL_ROW_1_48
*528 TAP_TAPCELL_ROW_1_49
*529 TAP_TAPCELL_ROW_20_86
*530 TAP_TAPCELL_ROW_20_87
*531 TAP_TAPCELL_ROW_21_88
*532 TAP_TAPCELL_ROW_21_89
*533 TAP_TAPCELL_ROW_21_90
*534 TAP_TAPCELL_ROW_21_91
*535 TAP_TAPCELL_ROW_2_50
*536 TAP_TAPCELL_ROW_2_51
*537 TAP_TAPCELL_ROW_3_52
*538 TAP_TAPCELL_ROW_3_53
*539 TAP_TAPCELL_ROW_4_54
*540 TAP_TAPCELL_ROW_4_55
*541 TAP_TAPCELL_ROW_5_56
*542 TAP_TAPCELL_ROW_5_57
*543 TAP_TAPCELL_ROW_6_58
*544 TAP_TAPCELL_ROW_6_59
*545 TAP_TAPCELL_ROW_7_60
*546 TAP_TAPCELL_ROW_7_61
*547 TAP_TAPCELL_ROW_8_62
*548 TAP_TAPCELL_ROW_8_63
*549 TAP_TAPCELL_ROW_9_64
*550 TAP_TAPCELL_ROW_9_65
*551 _071_
*552 _072_
*553 _073_
*554 _074_
*555 _075_
*556 _076_
*557 _077_
*558 _078_
*559 _079_
*560 _080_
*561 _081_
*562 _082_
*563 _083_
*564 _084_
*565 _085_
*566 _086_
*567 _087_
*568 _088_
*569 _089_
*570 _090_
*571 _091_
*572 _092_
*573 _093_
*574 _094_
*575 _095_
*576 _096_
*577 _097_
*578 _098_
*579 _099_
*580 _100_
*581 _101_
*582 _102_
*583 _103_
*584 _104_
*585 _105_
*586 _106_
*587 _107_
*588 _108_
*589 _109_
*590 _110_
*591 _111_
*592 _112_
*593 _113_
*594 _114_
*595 _115_
*596 _116_
*597 _117_
*598 _118_
*599 _119_
*600 _120_
*601 _121_
*602 _122_
*603 _123_
*604 _124_
*605 _125_
*606 _126_
*607 _127_
*608 _128_
*609 _129_
*610 _130_
*611 _131_
*612 _132_
*613 _133_
*614 _134_
*615 _135_
*616 _136_
*617 _137_
*618 _138_
*619 _139_
*620 _140_
*621 _141_
*622 _142_
*623 _143_
*624 _144_
*625 _145_
*626 _146_
*627 _147_
*628 _148_
*629 _149_
*630 _150_
*631 _151_
*632 _152_
*633 _153_
*634 _154_
*635 _155_
*636 _156_
*637 _157_
*638 _158_
*639 _159_
*640 _160_
*641 _161_
*642 _162_
*643 _163_
*644 _164_
*645 _165_
*646 _166_
*647 _167_
*648 _168_
*649 _169_
*650 _170_
*651 _171_
*652 _172_
*653 _173_
*654 _174_
*655 _175_
*656 _176_
*657 _177_
*658 _178_
*659 _179_
*660 _180_
*661 _181_
*662 _182_
*663 _183_
*664 _184_
*665 _185_
*666 _186_
*667 _187_
*668 _188_
*669 _189_
*670 _190_
*671 _191_
*672 _192_
*673 _193_
*674 _194_
*675 _195_
*676 _196_
*677 _197_
*678 _198_
*679 _199_
*680 _200_
*681 _201_
*682 _202_
*683 _203_
*684 _204_
*685 _205_
*686 _206_
*687 _207_
*688 _208_
*689 clkbuf_0_CLK
*690 clkbuf_2_0__f_CLK
*691 clkbuf_2_1__f_CLK
*692 clkbuf_2_2__f_CLK
*693 clkbuf_2_3__f_CLK
*694 clkload0
*695 clkload1
*696 clkload2
*697 input1
*698 input10
*699 input11
*700 input12
*701 input13
*702 input14
*703 input15
*704 input16
*705 input17
*706 input18
*707 input19
*708 input2
*709 input20
*710 input21
*711 input22
*712 input23
*713 input24
*714 input25
*715 input26
*716 input27
*717 input28
*718 input29
*719 input3
*720 input30
*721 input31
*722 input32
*723 input33
*724 input4
*725 input5
*726 input6
*727 input7
*728 input8
*729 input9
*730 output34
*731 output35
*732 output36
*733 output37
*734 output38
*735 output39
*736 output40
*737 output41
*738 output42
*739 output43
*740 output44
*741 output45
*742 output46
*743 output47
*744 output48
*745 output49
*746 output50

*PORTS
A[0] I
A[10] I
A[11] I
A[12] I
A[13] I
A[14] I
A[15] I
A[1] I
A[2] I
A[3] I
A[4] I
A[5] I
A[6] I
A[7] I
A[8] I
A[9] I
B[0] I
B[10] I
B[11] I
B[12] I
B[13] I
B[14] I
B[15] I
B[1] I
B[2] I
B[3] I
B[4] I
B[5] I
B[6] I
B[7] I
B[8] I
B[9] I
CLK I
Cin I
Cout O
S[0] O
S[10] O
S[11] O
S[12] O
S[13] O
S[14] O
S[15] O
S[1] O
S[2] O
S[3] O
S[4] O
S[5] O
S[6] O
S[7] O
S[8] O
S[9] O

*D_NET *1 0.00160342
*CONN
*P A[0] I
*I *697:A I *D sky130_fd_sc_hd__clkbuf_1
*CAP
1 A[0] 0.000760658
2 *697:A 0.000760658
3 *697:A Cout 0
4 *697:A S[14] 8.21021e-05
5 *697:A *728:A 0
*RES
1 A[0] *697:A 16.875 
*END

*D_NET *2 0.0011057
*CONN
*P A[10] I
*I *708:A I *D sky130_fd_sc_hd__clkbuf_1
*CAP
1 A[10] 0.000535295
2 *708:A 0.000535295
3 *708:A *657:D 3.51072e-05
4 *708:A *704:A 0
*RES
1 A[10] *708:A 12.96 
*END

*D_NET *3 0.000956645
*CONN
*P A[11] I
*I *719:A I *D sky130_fd_sc_hd__clkbuf_1
*CAP
1 A[11] 0.000467106
2 *719:A 0.000467106
3 *719:A *658:D 2.24336e-05
4 *719:A *724:A 0
*RES
1 A[11] *719:A 12.06 
*END

*D_NET *4 0.000987546
*CONN
*P A[12] I
*I *724:A I *D sky130_fd_sc_hd__clkbuf_1
*CAP
1 A[12] 0.000493773
2 *724:A 0.000493773
3 *724:A *725:A 0
4 *719:A *724:A 0
*RES
1 A[12] *724:A 12.06 
*END

*D_NET *5 0.00145488
*CONN
*P A[13] I
*I *725:A I *D sky130_fd_sc_hd__clkbuf_1
*CAP
1 A[13] 0.00068421
2 *725:A 0.00068421
3 *725:A *660:D 8.64565e-05
4 *725:A *662:D 0
5 *725:A *726:A 0
6 *725:A *202:10 0
7 *724:A *725:A 0
*RES
1 A[13] *725:A 15.255 
*END

*D_NET *6 0.00148216
*CONN
*P A[14] I
*I *726:A I *D sky130_fd_sc_hd__clkbuf_1
*CAP
1 A[14] 0.00054196
2 *726:A 0.00054196
3 *726:A *660:D 1.14192e-05
4 *726:A *662:CLK 0.000205205
5 *726:A *662:D 0.000135002
6 *726:A *727:A 4.66108e-05
7 *725:A *726:A 0
*RES
1 A[14] *726:A 14.565 
*END

*D_NET *7 0.00169542
*CONN
*P A[15] I
*I *727:A I *D sky130_fd_sc_hd__clkbuf_1
*CAP
1 A[15] 0.000766032
2 *727:A 0.000766032
3 *727:A *660:D 8.80447e-05
4 *727:A *662:CLK 0
5 *727:A *662:D 2.86975e-05
6 *726:A *727:A 4.66108e-05
*RES
1 A[15] *727:A 17.22 
*END

*D_NET *8 0.00223064
*CONN
*P A[1] I
*I *728:A I *D sky130_fd_sc_hd__clkbuf_1
*CAP
1 A[1] 0.000915455
2 *728:A 0.000915455
3 *728:A Cout 7.69441e-05
4 *728:A *648:D 2.20153e-05
5 *728:A *698:A 0
6 *728:A *729:A 0.000300772
7 *697:A *728:A 0
*RES
1 A[1] *728:A 21.655 
*END

*D_NET *9 0.00141826
*CONN
*P A[2] I
*I *729:A I *D sky130_fd_sc_hd__clkbuf_1
*CAP
1 A[2] 0.000457519
2 *729:A 0.000457519
3 *729:A *648:D 0.000202445
4 *729:A *698:A 0
5 *728:A *729:A 0.000300772
*RES
1 A[2] *729:A 13.305 
*END

*D_NET *10 0.00115377
*CONN
*P A[3] I
*I *698:A I *D sky130_fd_sc_hd__clkbuf_1
*CAP
1 A[3] 0.000576887
2 *698:A 0.000576887
3 *728:A *698:A 0
4 *729:A *698:A 0
*RES
1 A[3] *698:A 13.305 
*END

*D_NET *11 0.000950239
*CONN
*P A[4] I
*I *699:A I *D sky130_fd_sc_hd__clkbuf_1
*CAP
1 A[4] 0.00047512
2 *699:A 0.00047512
3 *699:A *700:A 0
*RES
1 A[4] *699:A 12.06 
*END

*D_NET *12 0.000988339
*CONN
*P A[5] I
*I *700:A I *D sky130_fd_sc_hd__clkbuf_1
*CAP
1 A[5] 0.00049417
2 *700:A 0.00049417
3 *700:A *701:A 0
4 *699:A *700:A 0
*RES
1 A[5] *700:A 12.06 
*END

*D_NET *13 0.000902395
*CONN
*P A[6] I
*I *701:A I *D sky130_fd_sc_hd__clkbuf_1
*CAP
1 A[6] 0.000435929
2 *701:A 0.000435929
3 *701:A *653:D 3.05373e-05
4 *701:A *702:A 0
5 *700:A *701:A 0
*RES
1 A[6] *701:A 11.37 
*END

*D_NET *14 0.000992004
*CONN
*P A[7] I
*I *702:A I *D sky130_fd_sc_hd__clkbuf_1
*CAP
1 A[7] 0.000496002
2 *702:A 0.000496002
3 *701:A *702:A 0
*RES
1 A[7] *702:A 12.06 
*END

*D_NET *15 0.000959786
*CONN
*P A[8] I
*I *703:A I *D sky130_fd_sc_hd__clkbuf_1
*CAP
1 A[8] 0.000463691
2 *703:A 0.000463691
3 *703:A *656:D 3.24046e-05
4 *703:A *704:A 0
*RES
1 A[8] *703:A 12.06 
*END

*D_NET *16 0.00101417
*CONN
*P A[9] I
*I *704:A I *D sky130_fd_sc_hd__clkbuf_1
*CAP
1 A[9] 0.000493657
2 *704:A 0.000493657
3 *704:A *656:D 2.68526e-05
4 *703:A *704:A 0
5 *708:A *704:A 0
*RES
1 A[9] *704:A 12.06 
*END

*D_NET *17 0.00179008
*CONN
*P B[0] I
*I *705:A I *D sky130_fd_sc_hd__clkbuf_1
*CAP
1 B[0] 0.000477388
2 *705:A 0.000477388
3 *705:A S[0] 0.000554192
4 *705:A S[1] 8.31173e-05
5 *705:A *713:A 0.0001249
6 *705:A *731:A 7.3093e-05
*RES
1 B[0] *705:A 15.285 
*END

*D_NET *18 0.00100307
*CONN
*P B[10] I
*I *706:A I *D sky130_fd_sc_hd__clkbuf_1
*CAP
1 B[10] 0.000485036
2 *706:A 0.000485036
3 *706:A *673:D 3.30017e-05
4 *706:A *707:A 0
5 *706:A *722:A 0
*RES
1 B[10] *706:A 11.94 
*END

*D_NET *19 0.000880284
*CONN
*P B[11] I
*I *707:A I *D sky130_fd_sc_hd__clkbuf_1
*CAP
1 B[11] 0.000440142
2 *707:A 0.000440142
3 *707:A *709:A 0
4 *706:A *707:A 0
*RES
1 B[11] *707:A 11.04 
*END

*D_NET *20 0.000786235
*CONN
*P B[12] I
*I *709:A I *D sky130_fd_sc_hd__clkbuf_1
*CAP
1 B[12] 0.000393118
2 *709:A 0.000393118
3 *709:A *710:A 0
4 *707:A *709:A 0
*RES
1 B[12] *709:A 10.35 
*END

*D_NET *21 0.000883783
*CONN
*P B[13] I
*I *710:A I *D sky130_fd_sc_hd__clkbuf_1
*CAP
1 B[13] 0.000433008
2 *710:A 0.000433008
3 *710:A *676:D 1.77665e-05
4 *710:A *711:A 0
5 *709:A *710:A 0
*RES
1 B[13] *710:A 11.04 
*END

*D_NET *22 0.000790548
*CONN
*P B[14] I
*I *711:A I *D sky130_fd_sc_hd__clkbuf_1
*CAP
1 B[14] 0.000395274
2 *711:A 0.000395274
3 *711:A *712:A 0
4 *710:A *711:A 0
*RES
1 B[14] *711:A 10.455 
*END

*D_NET *23 0.00130839
*CONN
*P B[15] I
*I *712:A I *D sky130_fd_sc_hd__clkbuf_1
*CAP
1 B[15] 0.000638843
2 *712:A 0.000638843
3 *712:A *677:D 1.7386e-05
4 *712:A *678:D 1.33205e-05
5 *711:A *712:A 0
*RES
1 B[15] *712:A 13.905 
*END

*D_NET *24 0.00101156
*CONN
*P B[1] I
*I *713:A I *D sky130_fd_sc_hd__clkbuf_1
*CAP
1 B[1] 0.0003897
2 *713:A 0.0003897
3 *713:A S[0] 0
4 *713:A *664:D 1.34594e-05
5 *713:A *714:A 0
6 *713:A *731:A 8.8266e-05
7 *713:A *738:A 5.53249e-06
8 *705:A *713:A 0.0001249
*RES
1 B[1] *713:A 11.04 
*END

*D_NET *25 0.000781837
*CONN
*P B[2] I
*I *714:A I *D sky130_fd_sc_hd__clkbuf_1
*CAP
1 B[2] 0.000390918
2 *714:A 0.000390918
3 *714:A *715:A 0
4 *713:A *714:A 0
*RES
1 B[2] *714:A 10.455 
*END

*D_NET *26 0.000845074
*CONN
*P B[3] I
*I *715:A I *D sky130_fd_sc_hd__clkbuf_1
*CAP
1 B[3] 0.000408775
2 *715:A 0.000408775
3 *715:A *665:D 2.75229e-05
4 *715:A *716:A 0
5 *714:A *715:A 0
*RES
1 B[3] *715:A 10.905 
*END

*D_NET *27 0.00105511
*CONN
*P B[4] I
*I *716:A I *D sky130_fd_sc_hd__clkbuf_1
*CAP
1 B[4] 0.000446331
2 *716:A 0.000446331
3 *716:A *665:D 7.58547e-05
4 *716:A *667:D 8.65905e-05
5 *716:A *717:A 0
6 *715:A *716:A 0
*RES
1 B[4] *716:A 11.94 
*END

*D_NET *28 0.00107809
*CONN
*P B[5] I
*I *717:A I *D sky130_fd_sc_hd__clkbuf_1
*CAP
1 B[5] 0.000503628
2 *717:A 0.000503628
3 *717:A *668:D 3.51072e-05
4 *717:A *718:A 0
5 *717:A *213:10 3.57254e-05
6 *716:A *717:A 0
*RES
1 B[5] *717:A 12.42 
*END

*D_NET *29 0.00078667
*CONN
*P B[6] I
*I *718:A I *D sky130_fd_sc_hd__clkbuf_1
*CAP
1 B[6] 0.00039151
2 *718:A 0.00039151
3 *718:A *668:D 3.64998e-06
4 *718:A *720:A 0
5 *717:A *718:A 0
*RES
1 B[6] *718:A 10.35 
*END

*D_NET *30 0.00126534
*CONN
*P B[7] I
*I *720:A I *D sky130_fd_sc_hd__clkbuf_1
*CAP
1 B[7] 0.000510598
2 *720:A 0.000510598
3 *720:A *670:CLK 0.000100874
4 *720:A *670:D 0.000143266
5 *720:A *721:A 0
6 *718:A *720:A 0
*RES
1 B[7] *720:A 13.335 
*END

*D_NET *31 0.00107809
*CONN
*P B[8] I
*I *721:A I *D sky130_fd_sc_hd__clkbuf_1
*CAP
1 B[8] 0.000516099
2 *721:A 0.000516099
3 *721:A *671:D 1.83756e-05
4 *721:A *722:A 0
5 *721:A *222:10 2.75145e-05
6 *720:A *721:A 0
*RES
1 B[8] *721:A 12.42 
*END

*D_NET *32 0.000884861
*CONN
*P B[9] I
*I *722:A I *D sky130_fd_sc_hd__clkbuf_1
*CAP
1 B[9] 0.000433547
2 *722:A 0.000433547
3 *722:A *672:D 1.77665e-05
4 *722:A *222:10 0
5 *706:A *722:A 0
6 *721:A *722:A 0
*RES
1 B[9] *722:A 11.04 
*END

*D_NET *33 0.00576983
*CONN
*P CLK I
*I *689:A I *D sky130_fd_sc_hd__clkbuf_16
*CAP
1 CLK 0.00264188
2 *689:A 0.00264188
3 *689:A *579:A 4.31629e-05
4 *689:A *579:B 4.89295e-05
5 *689:A *580:A 2.58336e-05
6 *689:A *580:B 4.77719e-05
7 *689:A *108:6 8.71595e-05
8 *689:A *109:12 0.000101747
9 *689:A *188:12 0.00013147
*RES
1 CLK *689:A 14.0468 
*END

*D_NET *34 0.000478163
*CONN
*P Cin I
*I *723:A I *D sky130_fd_sc_hd__clkbuf_1
*CAP
1 Cin 0.000217574
2 *723:A 0.000217574
3 *723:A *660:CLK 4.30146e-05
*RES
1 Cin *723:A 5.10177 
*END

*D_NET *35 0.00150894
*CONN
*P Cout O
*I *730:X O *D sky130_fd_sc_hd__buf_1
*CAP
1 Cout 0.000650854
2 *730:X 0.000650854
3 Cout S[15] 0
4 Cout *735:A 1.56428e-05
5 Cout *736:A 0.000114649
6 Cout *184:10 0
7 *697:A Cout 0
8 *728:A Cout 7.69441e-05
*RES
1 *730:X Cout 12.33 
*END

*D_NET *36 0.00170854
*CONN
*P S[0] O
*I *731:X O *D sky130_fd_sc_hd__buf_1
*CAP
1 S[0] 0.000569391
2 *731:X 0.000569391
3 S[0] S[1] 0
4 S[0] *731:A 1.55649e-05
5 *705:A S[0] 0.000554192
6 *713:A S[0] 0
*RES
1 *731:X S[0] 11.3602 
*END

*D_NET *37 0.000670859
*CONN
*P S[10] O
*I *732:X O *D sky130_fd_sc_hd__buf_1
*CAP
1 S[10] 0.000332276
2 *732:X 0.000332276
3 S[10] S[11] 0
4 S[10] S[9] 6.30563e-06
*RES
1 *732:X S[10] 7.3443 
*END

*D_NET *38 0.000629471
*CONN
*P S[11] O
*I *733:X O *D sky130_fd_sc_hd__buf_1
*CAP
1 S[11] 0.000314736
2 *733:X 0.000314736
3 S[11] S[12] 0
4 S[11] *647:D 0
5 S[10] S[11] 0
*RES
1 *733:X S[11] 6.2585 
*END

*D_NET *39 0.000628024
*CONN
*P S[12] O
*I *734:X O *D sky130_fd_sc_hd__buf_1
*CAP
1 S[12] 0.000309674
2 *734:X 0.000309674
3 S[12] S[13] 8.67624e-06
4 S[11] S[12] 0
*RES
1 *734:X S[12] 7.0893 
*END

*D_NET *40 0.000569636
*CONN
*P S[13] O
*I *735:X O *D sky130_fd_sc_hd__buf_1
*CAP
1 S[13] 0.000256524
2 *735:X 0.000256524
3 S[13] S[14] 0
4 S[13] *647:D 1.07047e-05
5 S[13] *736:A 3.72081e-05
6 S[12] S[13] 8.67624e-06
*RES
1 *735:X S[13] 5.86677 
*END

*D_NET *41 0.000644632
*CONN
*P S[14] O
*I *736:X O *D sky130_fd_sc_hd__buf_1
*CAP
1 S[14] 0.000276927
2 *736:X 0.000276927
3 S[14] S[15] 8.67624e-06
4 S[13] S[14] 0
5 *697:A S[14] 8.21021e-05
*RES
1 *736:X S[14] 7.0893 
*END

*D_NET *42 0.00139272
*CONN
*P S[15] O
*I *737:X O *D sky130_fd_sc_hd__buf_1
*CAP
1 S[15] 0.000582403
2 *737:X 0.000582403
3 S[15] *647:D 5.72268e-05
4 S[15] *737:A 1.17614e-05
5 S[15] *184:10 0.00015025
6 Cout S[15] 0
7 S[14] S[15] 8.67624e-06
*RES
1 *737:X S[15] 9.78637 
*END

*D_NET *43 0.000602975
*CONN
*P S[1] O
*I *738:X O *D sky130_fd_sc_hd__buf_1
*CAP
1 S[1] 0.000257262
2 *738:X 0.000257262
3 S[1] S[2] 5.33311e-06
4 S[0] S[1] 0
5 *705:A S[1] 8.31173e-05
*RES
1 *738:X S[1] 7.0893 
*END

*D_NET *44 0.00063564
*CONN
*P S[2] O
*I *739:X O *D sky130_fd_sc_hd__buf_1
*CAP
1 S[2] 0.000312487
2 *739:X 0.000312487
3 S[2] S[3] 5.33311e-06
4 S[1] S[2] 5.33311e-06
*RES
1 *739:X S[2] 7.0893 
*END

*D_NET *45 0.0008614
*CONN
*P S[3] O
*I *740:X O *D sky130_fd_sc_hd__buf_1
*CAP
1 S[3] 0.00039512
2 *740:X 0.00039512
3 S[3] S[4] 1.68881e-05
4 S[3] *664:D 0
5 S[3] *741:A 4.89395e-05
6 S[2] S[3] 5.33311e-06
*RES
1 *740:X S[3] 8.3793 
*END

*D_NET *46 0.000544793
*CONN
*P S[4] O
*I *741:X O *D sky130_fd_sc_hd__buf_1
*CAP
1 S[4] 0.000263953
2 *741:X 0.000263953
3 S[4] S[5] 0
4 S[4] *664:D 0
5 S[3] S[4] 1.68881e-05
*RES
1 *741:X S[4] 5.7485 
*END

*D_NET *47 0.000651798
*CONN
*P S[5] O
*I *742:X O *D sky130_fd_sc_hd__buf_1
*CAP
1 S[5] 0.000323232
2 *742:X 0.000323232
3 S[5] S[6] 5.33311e-06
4 S[5] *742:A 0
5 S[4] S[5] 0
*RES
1 *742:X S[5] 7.3443 
*END

*D_NET *48 0.000631404
*CONN
*P S[6] O
*I *743:X O *D sky130_fd_sc_hd__buf_1
*CAP
1 S[6] 0.000306874
2 *743:X 0.000306874
3 S[6] S[7] 1.23223e-05
4 S[5] S[6] 5.33311e-06
*RES
1 *743:X S[6] 7.0893 
*END

*D_NET *49 0.000547299
*CONN
*P S[7] O
*I *744:X O *D sky130_fd_sc_hd__buf_1
*CAP
1 S[7] 0.000267488
2 *744:X 0.000267488
3 S[7] S[8] 0
4 S[6] S[7] 1.23223e-05
*RES
1 *744:X S[7] 6.8343 
*END

*D_NET *50 0.00045292
*CONN
*P S[8] O
*I *745:X O *D sky130_fd_sc_hd__buf_1
*CAP
1 S[8] 0.00022089
2 *745:X 0.00022089
3 S[8] S[9] 1.11399e-05
4 S[8] *663:D 0
5 S[7] S[8] 0
*RES
1 *745:X S[8] 5.10177 
*END

*D_NET *51 0.000624235
*CONN
*P S[9] O
*I *746:X O *D sky130_fd_sc_hd__buf_1
*CAP
1 S[9] 0.000303395
2 *746:X 0.000303395
3 S[10] S[9] 6.30563e-06
4 S[8] S[9] 1.11399e-05
*RES
1 *746:X S[9] 7.0893 
*END

*D_NET *54 0.000710947
*CONN
*I *605:B1 I *D sky130_fd_sc_hd__a22oi_1
*I *602:A I *D sky130_fd_sc_hd__xnor2_1
*I *600:Y O *D sky130_fd_sc_hd__nor2_1
*CAP
1 *605:B1 3.30741e-05
2 *602:A 0.000156861
3 *600:Y 0.000107921
4 *54:6 0.000297856
5 *602:A *605:A1 1.53172e-05
6 *602:A *641:D 1.14192e-05
7 *54:6 *605:A1 2.23411e-05
8 *54:6 *605:B2 1.41095e-05
9 *54:6 *113:14 4.11718e-05
10 *54:6 *113:23 1.08758e-05
*RES
1 *600:Y *54:6 3.43 
2 *54:6 *602:A 8.045 
3 *54:6 *605:B1 2.215 
*END

*D_NET *55 0.0012873
*CONN
*I *602:B I *D sky130_fd_sc_hd__xnor2_1
*I *601:X O *D sky130_fd_sc_hd__or2b_1
*CAP
1 *602:B 0.000643648
2 *601:X 0.000643648
*RES
1 *601:X *602:B 11.6 
*END

*D_NET *56 0.00110832
*CONN
*I *605:A2 I *D sky130_fd_sc_hd__a22oi_1
*I *604:B I *D sky130_fd_sc_hd__or2_1
*I *603:X O *D sky130_fd_sc_hd__o31a_1
*CAP
1 *605:A2 0.00015544
2 *604:B 0.000187393
3 *603:X 0
4 *56:6 0.000342833
5 *604:B *557:A 6.8306e-05
6 *604:B *557:B 4.89295e-05
7 *604:B *604:A 1.64731e-05
8 *604:B *611:B 1.64067e-05
9 *604:B *85:14 3.75882e-06
10 *604:B *86:6 7.09634e-05
11 *604:B *86:12 2.41307e-05
12 *604:B *129:72 5.21705e-05
13 *605:A2 *584:A3 6.8725e-06
14 *605:A2 *606:A 5.28364e-05
15 *605:A2 *641:D 1.2818e-05
16 *605:A2 *85:14 2.41231e-05
17 *605:A2 *86:12 7.27704e-06
18 *605:A2 *86:23 1.75871e-05
*RES
1 *603:X *56:6 3.6 
2 *56:6 *604:B 7.86 
3 *56:6 *605:A2 6.37875 
*END

*D_NET *57 0.00129324
*CONN
*I *605:B2 I *D sky130_fd_sc_hd__a22oi_1
*I *604:X O *D sky130_fd_sc_hd__or2_1
*CAP
1 *605:B2 0.000239013
2 *604:X 0.000239013
3 *605:B2 *556:B 0.000110486
4 *605:B2 *584:C1 6.72636e-05
5 *605:B2 *604:A 4.77719e-05
6 *605:B2 *605:A1 0.000155601
7 *605:B2 *112:6 4.77757e-05
8 *605:B2 *113:14 8.41307e-05
9 *605:B2 *113:23 1.91597e-05
10 *605:B2 *129:72 1.16854e-05
11 *605:B2 *227:10 0.000257233
12 *54:6 *605:B2 1.41095e-05
*RES
1 *604:X *605:B2 12.99 
*END

*D_NET *58 0.000667058
*CONN
*I *608:A I *D sky130_fd_sc_hd__xnor2_1
*I *606:Y O *D sky130_fd_sc_hd__nor2_1
*CAP
1 *608:A 0.00023371
2 *606:Y 0.00023371
3 *608:A *584:A3 4.66108e-05
4 *608:A *641:D 6.646e-05
5 *608:A *218:10 4.41857e-05
6 *608:A *221:10 4.23802e-05
*RES
1 *606:Y *608:A 10.755 
*END

*D_NET *59 0.00130853
*CONN
*I *608:B I *D sky130_fd_sc_hd__xnor2_1
*I *607:X O *D sky130_fd_sc_hd__or2b_1
*CAP
1 *608:B 0.000185072
2 *607:X 0.000185072
3 *608:B *584:A2 0.000269335
4 *608:B *584:A3 4.89295e-05
5 *608:B *584:C1 4.77757e-05
6 *608:B *603:A1 0.000196074
7 *608:B *603:B1 9.48395e-05
8 *608:B *85:14 0.000103214
9 *608:B *110:12 0.000156754
10 *608:B *111:25 2.14655e-05
*RES
1 *607:X *608:B 9.17 
*END

*D_NET *60 0.00283536
*CONN
*I *610:A2 I *D sky130_fd_sc_hd__o21a_1
*I *613:A2 I *D sky130_fd_sc_hd__o21ba_1
*I *614:A2 I *D sky130_fd_sc_hd__a21oi_1
*I *617:B1 I *D sky130_fd_sc_hd__a2bb2o_1
*I *609:X O *D sky130_fd_sc_hd__or2_1
*CAP
1 *610:A2 0
2 *613:A2 1.7673e-05
3 *614:A2 0.000116965
4 *617:B1 9.73e-05
5 *609:X 0.000422456
6 *60:25 0.000240302
7 *60:8 0.000202964
8 *60:6 0.000422456
9 *614:A2 *613:B1_N 8.8266e-05
10 *614:A2 *614:A1 0.000119082
11 *614:A2 *614:B1 0.000123955
12 *617:B1 *614:A1 7.21262e-05
13 *617:B1 *616:B 2.69217e-05
14 *617:B1 *617:A2_N 2.69153e-05
15 *617:B1 *617:B2 4.89395e-05
16 *617:B1 *87:12 5.68401e-05
17 *617:B1 *218:10 0.000224694
18 *60:6 *609:A 7.5687e-06
19 *60:6 *609:B 3.04889e-05
20 *60:6 *610:B1 0.000151551
21 *60:25 *613:A1 8.40213e-05
22 *60:25 *614:A1 0.000145673
23 *60:25 *218:10 0.000108202
*RES
1 *609:X *60:6 6.535 
2 *60:6 *60:8 2 
3 *60:8 *617:B1 7.05 
4 *60:8 *60:25 4.865 
5 *60:25 *614:A2 4.93 
6 *60:25 *613:A2 1.96 
7 *60:6 *610:A2 1.6 
*END

*D_NET *61 0.000892953
*CONN
*I *612:A I *D sky130_fd_sc_hd__xnor2_1
*I *613:B1_N I *D sky130_fd_sc_hd__o21ba_1
*I *610:X O *D sky130_fd_sc_hd__o21a_1
*CAP
1 *612:A 0.000133214
2 *613:B1_N 5.27054e-05
3 *610:X 8.33067e-05
4 *61:8 0.000269226
5 *612:A *612:B 4.77769e-05
6 *612:A *688:CLK 0
7 *612:A *129:72 5.05437e-05
8 *612:A *218:10 5.99234e-05
9 *613:B1_N *614:A1 5.30673e-05
10 *61:8 *218:10 5.49226e-05
11 *614:A2 *613:B1_N 8.8266e-05
*RES
1 *610:X *61:8 5.235 
2 *61:8 *613:B1_N 4.845 
3 *61:8 *612:A 6.285 
*END

*D_NET *62 0.000550765
*CONN
*I *612:B I *D sky130_fd_sc_hd__xnor2_1
*I *611:X O *D sky130_fd_sc_hd__and2b_1
*CAP
1 *612:B 0.000185889
2 *611:X 0.000185889
3 *612:B *129:72 0.000131211
4 *612:A *612:B 4.77769e-05
*RES
1 *611:X *612:B 6.755 
*END

*D_NET *63 0.000447468
*CONN
*I *614:B1 I *D sky130_fd_sc_hd__a21oi_1
*I *613:X O *D sky130_fd_sc_hd__o21ba_1
*CAP
1 *614:B1 0.000118037
2 *613:X 0.000118037
3 *614:B1 *614:A1 1.52352e-05
4 *614:B1 *688:CLK 5.17934e-05
5 *614:B1 *688:D 2.04101e-05
6 *614:A2 *614:B1 0.000123955
*RES
1 *613:X *614:B1 5.84 
*END

*D_NET *64 0.0018089
*CONN
*I *616:B I *D sky130_fd_sc_hd__nand2_1
*I *617:A2_N I *D sky130_fd_sc_hd__a2bb2o_1
*I *615:X O *D sky130_fd_sc_hd__o31a_1
*CAP
1 *616:B 0.000305579
2 *617:A2_N 0.000111604
3 *615:X 0.000165105
4 *64:10 0.000582288
5 *616:B *616:A 9.12671e-06
6 *616:B *617:B2 7.54844e-05
7 *616:B *87:12 0.000231187
8 *617:A2_N *687:D 1.22325e-05
9 *64:10 *577:B 0
10 *64:10 *578:A1 5.67882e-05
11 *64:10 *615:A3 0.000151249
12 *64:10 *218:10 5.4419e-05
13 *617:B1 *616:B 2.69217e-05
14 *617:B1 *617:A2_N 2.69153e-05
*RES
1 *615:X *64:10 8.765 
2 *64:10 *617:A2_N 3.355 
3 *64:10 *616:B 7.285 
*END

*D_NET *65 0.000872578
*CONN
*I *617:B2 I *D sky130_fd_sc_hd__a2bb2o_1
*I *616:Y O *D sky130_fd_sc_hd__nand2_1
*CAP
1 *617:B2 0.000138371
2 *616:Y 0.000138371
3 *617:B2 *559:A 4.66108e-05
4 *617:B2 *559:B 4.77719e-05
5 *617:B2 *616:A 0.000255523
6 *617:B2 *87:12 7.37352e-05
7 *617:B2 *88:14 4.77719e-05
8 *616:B *617:B2 7.54844e-05
9 *617:B1 *617:B2 4.89395e-05
*RES
1 *616:Y *617:B2 7.1 
*END

*D_NET *66 0.00128881
*CONN
*I *620:A I *D sky130_fd_sc_hd__xnor2_1
*I *618:Y O *D sky130_fd_sc_hd__nor2_1
*CAP
1 *620:A 0.000405411
2 *618:Y 0.000405411