*SPEF "ieee 1481-1999"
*DESIGN "fa16"
*DATE "08:53:09 Thursday October 23, 2025"
*VENDOR "The OpenROAD Project"
*PROGRAM "OpenROAD"
*VERSION "b16bda7e82721d10566ff7e2b68f1ff0be9f9e38"
*DESIGN_FLOW "NAME_SCOPE LOCAL" "PIN_CAP NONE"
*DIVIDER /
*DELIMITER :
*BUS_DELIMITER []
*T_UNIT 1 NS
*C_UNIT 1 PF
*R_UNIT 1 OHM
*L_UNIT 1 HENRY

*NAME_MAP
*1 A[0]
*2 A[10]
*3 A[11]
*4 A[12]
*5 A[13]
*6 A[14]
*7 A[15]
*8 A[1]
*9 A[2]
*10 A[3]
*11 A[4]
*12 A[5]
*13 A[6]
*14 A[7]
*15 A[8]
*16 A[9]
*17 B[0]
*18 B[10]
*19 B[11]
*20 B[12]
*21 B[13]
*22 B[14]
*23 B[15]
*24 B[1]
*25 B[2]
*26 B[3]
*27 B[4]
*28 B[5]
*29 B[6]
*30 B[7]
*31 B[8]
*32 B[9]
*33 CLK
*34 Cin
*35 Cout
*36 S[0]
*37 S[10]
*38 S[11]
*39 S[12]
*40 S[13]
*41 S[14]
*42 S[15]
*43 S[1]
*44 S[2]
*45 S[3]
*46 S[4]
*47 S[5]
*48 S[6]
*49 S[7]
*50 S[8]
*51 S[9]
*54 _000_
*55 _001_
*56 _002_
*57 _003_
*58 _004_
*59 _005_
*60 _006_
*61 _007_
*62 _008_
*63 _009_
*64 _010_
*65 _011_
*66 _012_
*67 _013_
*68 _014_
*69 _015_
*70 _016_
*71 _017_
*72 _018_
*73 _019_
*74 _020_
*75 _021_
*76 _022_
*77 _023_
*78 _024_
*79 _025_
*80 _026_
*81 _027_
*82 _028_
*83 _029_
*84 _030_
*85 _031_
*86 _032_
*87 _033_
*88 _034_
*89 _035_
*90 _036_
*91 _037_
*92 _038_
*93 _039_
*94 _040_
*95 _041_
*96 _042_
*97 _043_
*98 _044_
*99 _045_
*100 _046_
*101 _047_
*102 _048_
*103 _049_
*104 _050_
*105 _051_
*106 _052_
*107 _053_
*108 _054_
*109 _055_
*110 _056_
*111 _057_
*112 _058_
*113 _059_
*114 _060_
*115 _061_
*116 _062_
*117 _063_
*118 _064_
*119 _065_
*120 _066_
*121 _067_
*122 _068_
*123 _069_
*124 _070_
*125 clknet_0_CLK
*126 clknet_2_0__leaf_CLK
*127 clknet_2_1__leaf_CLK
*128 clknet_2_2__leaf_CLK
*129 clknet_2_3__leaf_CLK
*130 net1
*131 net10
*132 net11
*133 net12
*134 net13
*135 net14
*136 net15
*137 net16
*138 net17
*139 net18
*140 net19
*141 net2
*142 net20
*143 net21
*144 net22
*145 net23
*146 net24
*147 net25
*148 net26
*149 net27
*150 net28
*151 net29
*152 net3
*153 net30
*154 net31
*155 net32
*156 net33
*157 net34
*158 net35
*159 net36
*160 net37
*161 net38
*162 net39
*163 net4
*164 net40
*165 net41
*166 net42
*167 net43
*168 net44
*169 net45
*170 net46
*171 net47
*172 net48
*173 net49
*174 net5
*175 net50
*176 net6
*177 net7
*178 net8
*179 net9
*180 x1_0\.A
*181 x1_0\.B
*182 x1_0\.Cin
*183 x1_0\.S
*184 x1_1\.A
*185 x1_1\.B
*186 x1_1\.S
*187 x1_10\.A
*188 x1_10\.B
*189 x1_10\.S
*190 x1_11\.A
*191 x1_11\.B
*192 x1_11\.S
*193 x1_12\.A
*194 x1_12\.B
*195 x1_12\.S
*196 x1_13\.A
*197 x1_13\.B
*198 x1_13\.S
*199 x1_14\.A
*200 x1_14\.B
*201 x1_14\.S
*202 x1_15\.A
*203 x1_15\.B
*204 x1_15\.Cout
*205 x1_15\.S
*206 x1_2\.A
*207 x1_2\.B
*208 x1_2\.S
*209 x1_3\.A
*210 x1_3\.B
*211 x1_3\.S
*212 x1_4\.A
*213 x1_4\.B
*214 x1_4\.S
*215 x1_5\.A
*216 x1_5\.B
*217 x1_5\.S
*218 x1_6\.A
*219 x1_6\.B
*220 x1_6\.S
*221 x1_7\.A
*222 x1_7\.B
*223 x1_7\.S
*224 x1_8\.A
*225 x1_8\.B
*226 x1_8\.S
*227 x1_9\.A
*228 x1_9\.B
*229 x1_9\.S
*230 FILLER_0_0_101
*231 FILLER_0_0_110
*232 FILLER_0_0_113
*233 FILLER_0_0_119
*234 FILLER_0_0_128
*235 FILLER_0_0_20
*236 FILLER_0_0_24
*237 FILLER_0_0_51
*238 FILLER_0_0_57
*239 FILLER_0_0_6
*240 FILLER_0_0_78
*241 FILLER_0_0_83
*242 FILLER_0_0_85
*243 FILLER_0_0_92
*244 FILLER_0_10_109
*245 FILLER_0_10_121
*246 FILLER_0_10_20
*247 FILLER_0_10_29
*248 FILLER_0_10_3
*249 FILLER_0_10_41
*250 FILLER_0_10_53
*251 FILLER_0_10_61
*252 FILLER_0_10_82
*253 FILLER_0_10_85
*254 FILLER_0_10_97
*255 FILLER_0_11_110
*256 FILLER_0_11_116
*257 FILLER_0_11_12
*258 FILLER_0_11_128
*259 FILLER_0_11_26
*260 FILLER_0_11_34
*261 FILLER_0_11_51
*262 FILLER_0_11_57
*263 FILLER_0_11_6
*264 FILLER_0_11_92
*265 FILLER_0_12_120
*266 FILLER_0_12_128
*267 FILLER_0_12_27
*268 FILLER_0_12_32
*269 FILLER_0_12_54
*270 FILLER_0_12_6
*271 FILLER_0_12_64
*272 FILLER_0_12_78
*273 FILLER_0_12_90
*274 FILLER_0_13_104
*275 FILLER_0_13_111
*276 FILLER_0_13_119
*277 FILLER_0_13_127
*278 FILLER_0_13_26
*279 FILLER_0_13_38
*280 FILLER_0_13_50
*281 FILLER_0_13_57
*282 FILLER_0_13_96
*283 FILLER_0_14_109
*284 FILLER_0_14_128
*285 FILLER_0_14_26
*286 FILLER_0_14_29
*287 FILLER_0_14_37
*288 FILLER_0_14_56
*289 FILLER_0_14_6
*290 FILLER_0_14_68
*291 FILLER_0_14_83
*292 FILLER_0_14_91
*293 FILLER_0_15_109
*294 FILLER_0_15_113
*295 FILLER_0_15_119
*296 FILLER_0_15_127
*297 FILLER_0_15_22
*298 FILLER_0_15_34
*299 FILLER_0_15_53
*300 FILLER_0_15_57
*301 FILLER_0_15_69
*302 FILLER_0_15_82
*303 FILLER_0_15_94
*304 FILLER_0_16_118
*305 FILLER_0_16_126
*306 FILLER_0_16_25
*307 FILLER_0_16_29
*308 FILLER_0_16_55
*309 FILLER_0_16_6
*310 FILLER_0_16_67
*311 FILLER_0_16_79
*312 FILLER_0_16_83
*313 FILLER_0_16_85
*314 FILLER_0_17_107
*315 FILLER_0_17_111
*316 FILLER_0_17_125
*317 FILLER_0_17_18
*318 FILLER_0_17_30
*319 FILLER_0_17_38
*320 FILLER_0_17_57
*321 FILLER_0_17_6
*322 FILLER_0_17_69
*323 FILLER_0_17_81
*324 FILLER_0_17_93
*325 FILLER_0_17_99
*326 FILLER_0_18_108
*327 FILLER_0_18_117
*328 FILLER_0_18_125
*329 FILLER_0_18_19
*330 FILLER_0_18_27
*331 FILLER_0_18_29
*332 FILLER_0_18_33
*333 FILLER_0_18_50
*334 FILLER_0_18_67
*335 FILLER_0_18_85
*336 FILLER_0_18_97
*337 FILLER_0_19_108
*338 FILLER_0_19_12
*339 FILLER_0_19_34
*340 FILLER_0_19_57
*341 FILLER_0_19_90
*342 FILLER_0_1_105
*343 FILLER_0_1_111
*344 FILLER_0_1_113
*345 FILLER_0_1_125
*346 FILLER_0_1_19
*347 FILLER_0_1_36
*348 FILLER_0_1_57
*349 FILLER_0_1_61
*350 FILLER_0_1_81
*351 FILLER_0_1_93
*352 FILLER_0_20_121
*353 FILLER_0_20_128
*354 FILLER_0_20_26
*355 FILLER_0_20_29
*356 FILLER_0_20_46
*357 FILLER_0_20_54
*358 FILLER_0_20_72
*359 FILLER_0_20_85
*360 FILLER_0_20_9
*361 FILLER_0_21_101
*362 FILLER_0_21_110
*363 FILLER_0_21_26
*364 FILLER_0_21_3
*365 FILLER_0_21_32
*366 FILLER_0_21_38
*367 FILLER_0_21_47
*368 FILLER_0_21_57
*369 FILLER_0_21_61
*370 FILLER_0_21_65
*371 FILLER_0_21_74
*372 FILLER_0_21_83
*373 FILLER_0_21_85
*374 FILLER_0_21_92
*375 FILLER_0_2_10
*376 FILLER_0_2_101
*377 FILLER_0_2_109
*378 FILLER_0_2_128
*379 FILLER_0_2_27
*380 FILLER_0_2_45
*381 FILLER_0_2_51
*382 FILLER_0_2_6
*383 FILLER_0_3_105
*384 FILLER_0_3_111
*385 FILLER_0_3_113
*386 FILLER_0_3_125
*387 FILLER_0_3_23
*388 FILLER_0_3_3
*389 FILLER_0_3_35
*390 FILLER_0_3_47
*391 FILLER_0_3_55
*392 FILLER_0_3_57
*393 FILLER_0_3_69
*394 FILLER_0_3_81
*395 FILLER_0_3_93
*396 FILLER_0_4_109
*397 FILLER_0_4_121
*398 FILLER_0_4_21
*399 FILLER_0_4_27
*400 FILLER_0_4_29
*401 FILLER_0_4_37
*402 FILLER_0_4_55
*403 FILLER_0_4_67
*404 FILLER_0_4_79
*405 FILLER_0_4_83
*406 FILLER_0_4_85
*407 FILLER_0_4_9
*408 FILLER_0_4_97
*409 FILLER_0_5_108
*410 FILLER_0_5_113
*411 FILLER_0_5_125
*412 FILLER_0_5_19
*413 FILLER_0_5_27
*414 FILLER_0_5_60
*415 FILLER_0_5_72
*416 FILLER_0_5_84
*417 FILLER_0_5_96
*418 FILLER_0_6_127
*419 FILLER_0_6_16
*420 FILLER_0_6_20
*421 FILLER_0_6_27
*422 FILLER_0_6_29
*423 FILLER_0_6_3
*424 FILLER_0_6_33
*425 FILLER_0_6_70
*426 FILLER_0_6_77
*427 FILLER_0_6_83
*428 FILLER_0_6_85
*429 FILLER_0_6_93
*430 FILLER_0_7_57
*431 FILLER_0_8_103
*432 FILLER_0_8_125
*433 FILLER_0_8_14
*434 FILLER_0_8_25
*435 FILLER_0_8_29
*436 FILLER_0_8_41
*437 FILLER_0_8_51
*438 FILLER_0_8_56
*439 FILLER_0_8_6
*440 FILLER_0_8_61
*441 FILLER_0_8_76
*442 FILLER_0_8_85
*443 FILLER_0_8_93
*444 FILLER_0_9_105
*445 FILLER_0_9_111
*446 FILLER_0_9_113
*447 FILLER_0_9_125
*448 FILLER_0_9_18
*449 FILLER_0_9_30
*450 FILLER_0_9_47
*451 FILLER_0_9_55
*452 FILLER_0_9_57
*453 FILLER_0_9_6
*454 FILLER_0_9_61
*455 FILLER_0_9_70
*456 FILLER_0_9_74
*457 FILLER_0_9_81
*458 FILLER_0_9_93
*459 PHY_EDGE_ROW_0_Left_22
*460 PHY_EDGE_ROW_0_Right_0
*461 PHY_EDGE_ROW_10_Left_32
*462 PHY_EDGE_ROW_10_Right_10
*463 PHY_EDGE_ROW_11_Left_33
*464 PHY_EDGE_ROW_11_Right_11
*465 PHY_EDGE_ROW_12_Left_34
*466 PHY_EDGE_ROW_12_Right_12
*467 PHY_EDGE_ROW_13_Left_35
*468 PHY_EDGE_ROW_13_Right_13
*469 PHY_EDGE_ROW_14_Left_36
*470 PHY_EDGE_ROW_14_Right_14
*471 PHY_EDGE_ROW_15_Left_37
*472 PHY_EDGE_ROW_15_Right_15
*473 PHY_EDGE_ROW_16_Left_38
*474 PHY_EDGE_ROW_16_Right_16
*475 PHY_EDGE_ROW_17_Left_39
*476 PHY_EDGE_ROW_17_Right_17
*477 PHY_EDGE_ROW_18_Left_40
*478 PHY_EDGE_ROW_18_Right_18
*479 PHY_EDGE_ROW_19_Left_41
*480 PHY_EDGE_ROW_19_Right_19
*481 PHY_EDGE_ROW_1_Left_23
*482 PHY_EDGE_ROW_1_Right_1
*483 PHY_EDGE_ROW_20_Left_42
*484 PHY_EDGE_ROW_20_Right_20
*485 PHY_EDGE_ROW_21_Left_43
*486 PHY_EDGE_ROW_21_Right_21
*487 PHY_EDGE_ROW_2_Left_24
*488 PHY_EDGE_ROW_2_Right_2
*489 PHY_EDGE_ROW_3_Left_25
*490 PHY_EDGE_ROW_3_Right_3
*491 PHY_EDGE_ROW_4_Left_26
*492 PHY_EDGE_ROW_4_Right_4
*493 PHY_EDGE_ROW_5_Left_27
*494 PHY_EDGE_ROW_5_Right_5
*495 PHY_EDGE_ROW_6_Left_28
*496 PHY_EDGE_ROW_6_Right_6
*497 PHY_EDGE_ROW_7_Left_29
*498 PHY_EDGE_ROW_7_Right_7
*499 PHY_EDGE_ROW_8_Left_30
*500 PHY_EDGE_ROW_8_Right_8
*501 PHY_EDGE_ROW_9_Left_31
*502 PHY_EDGE_ROW_9_Right_9
*503 TAP_TAPCELL_ROW_0_44
*504 TAP_TAPCELL_ROW_0_45
*505 TAP_TAPCELL_ROW_0_46
*506 TAP_TAPCELL_ROW_0_47
*507 TAP_TAPCELL_ROW_10_66
*508 TAP_TAPCELL_ROW_10_67
*509 TAP_TAPCELL_ROW_11_68
*510 TAP_TAPCELL_ROW_11_69
*511 TAP_TAPCELL_ROW_12_70
*512 TAP_TAPCELL_ROW_12_71
*513 TAP_TAPCELL_ROW_13_72
*514 TAP_TAPCELL_ROW_13_73
*515 TAP_TAPCELL_ROW_14_74
*516 TAP_TAPCELL_ROW_14_75
*517 TAP_TAPCELL_ROW_15_76
*518 TAP_TAPCELL_ROW_15_77
*519 TAP_TAPCELL_ROW_16_78
*520 TAP_TAPCELL_ROW_16_79
*521 TAP_TAPCELL_ROW_17_80
*522 TAP_TAPCELL_ROW_17_81
*523 TAP_TAPCELL_ROW_18_82
*524 TAP_TAPCELL_ROW_18_83
*525 TAP_TAPCELL_ROW_19_84
*526 TAP_TAPCELL_ROW_19_85
*527 TAP_TAPCELL_ROW_1_48
*528 TAP_TAPCELL_ROW_1_49
*529 TAP_TAPCELL_ROW_20_86
*530 TAP_TAPCELL_ROW_20_87
*531 TAP_TAPCELL_ROW_21_88
*532 TAP_TAPCELL_ROW_21_89
*533 TAP_TAPCELL_ROW_21_90
*534 TAP_TAPCELL_ROW_21_91
*535 TAP_TAPCELL_ROW_2_50
*536 TAP_TAPCELL_ROW_2_51
*537 TAP_TAPCELL_ROW_3_52
*538 TAP_TAPCELL_ROW_3_53
*539 TAP_TAPCELL_ROW_4_54
*540 TAP_TAPCELL_ROW_4_55
*541 TAP_TAPCELL_ROW_5_56
*542 TAP_TAPCELL_ROW_5_57
*543 TAP_TAPCELL_ROW_6_58
*544 TAP_TAPCELL_ROW_6_59
*545 TAP_TAPCELL_ROW_7_60
*546 TAP_TAPCELL_ROW_7_61
*547 TAP_TAPCELL_ROW_8_62
*548 TAP_TAPCELL_ROW_8_63
*549 TAP_TAPCELL_ROW_9_64
*550 TAP_TAPCELL_ROW_9_65
*551 _071_
*552 _072_
*553 _073_
*554 _074_
*555 _075_
*556 _076_
*557 _077_
*558 _078_
*559 _079_
*560 _080_
*561 _081_
*562 _082_
*563 _083_
*564 _084_
*565 _085_
*566 _086_
*567 _087_
*568 _088_
*569 _089_
*570 _090_
*571 _091_
*572 _092_
*573 _093_
*574 _094_
*575 _095_
*576 _096_
*577 _097_
*578 _098_
*579 _099_
*580 _100_
*581 _101_
*582 _102_
*583 _103_
*584 _104_
*585 _105_
*586 _106_
*587 _107_
*588 _108_
*589 _109_
*590 _110_
*591 _111_
*592 _112_
*593 _113_
*594 _114_
*595 _115_
*596 _116_
*597 _117_
*598 _118_
*599 _119_
*600 _120_
*601 _121_
*602 _122_
*603 _123_
*604 _124_
*605 _125_
*606 _126_
*607 _127_
*608 _128_
*609 _129_
*610 _130_
*611 _131_
*612 _132_
*613 _133_
*614 _134_
*615 _135_
*616 _136_
*617 _137_
*618 _138_
*619 _139_
*620 _140_
*621 _141_
*622 _142_
*623 _143_
*624 _144_
*625 _145_
*626 _146_
*627 _147_
*628 _148_
*629 _149_
*630 _150_
*631 _151_
*632 _152_
*633 _153_
*634 _154_
*635 _155_
*636 _156_
*637 _157_
*638 _158_
*639 _159_
*640 _160_
*641 _161_
*642 _162_
*643 _163_
*644 _164_
*645 _165_
*646 _166_
*647 _167_
*648 _168_
*649 _169_
*650 _170_
*651 _171_
*652 _172_
*653 _173_
*654 _174_
*655 _175_
*656 _176_
*657 _177_
*658 _178_
*659 _179_
*660 _180_
*661 _181_
*662 _182_
*663 _183_
*664 _184_
*665 _185_
*666 _186_
*667 _187_
*668 _188_
*669 _189_
*670 _190_
*671 _191_
*672 _192_
*673 _193_
*674 _194_
*675 _195_
*676 _196_
*677 _197_
*678 _198_
*679 _199_
*680 _200_
*681 _201_
*682 _202_
*683 _203_
*684 _204_
*685 _205_
*686 _206_
*687 _207_
*688 _208_
*689 clkbuf_0_CLK
*690 clkbuf_2_0__f_CLK
*691 clkbuf_2_1__f_CLK
*692 clkbuf_2_2__f_CLK
*693 clkbuf_2_3__f_CLK
*694 clkload0
*695 clkload1
*696 clkload2
*697 input1
*698 input10
*699 input11
*700 input12
*701 input13
*702 input14
*703 input15
*704 input16
*705 input17
*706 input18
*707 input19
*708 input2
*709 input20
*710 input21
*711 input22
*712 input23
*713 input24
*714 input25
*715 input26
*716 input27
*717 input28
*718 input29
*719 input3
*720 input30
*721 input31
*722 input32
*723 input33
*724 input4
*725 input5
*726 input6
*727 input7
*728 input8
*729 input9
*730 output34
*731 output35
*732 output36
*733 output37
*734 output38
*735 output39
*736 output40
*737 output41
*738 output42
*739 output43
*740 output44
*741 output45
*742 output46
*743 output47
*744 output48
*745 output49
*746 output50

*PORTS
A[0] I
A[10] I
A[11] I
A[12] I
A[13] I
A[14] I
A[15] I
A[1] I
A[2] I
A[3] I
A[4] I
A[5] I
A[6] I
A[7] I
A[8] I
A[9] I
B[0] I
B[10] I
B[11] I
B[12] I
B[13] I
B[14] I
B[15] I
B[1] I
B[2] I
B[3] I
B[4] I
B[5] I
B[6] I
B[7] I
B[8] I
B[9] I
CLK I
Cin I
Cout O
S[0] O
S[10] O
S[11] O
S[12] O
S[13] O
S[14] O
S[15] O
S[1] O
S[2] O
S[3] O
S[4] O
S[5] O
S[6] O
S[7] O
S[8] O
S[9] O

*D_NET *1 0.00182387
*CONN
*P A[0] I
*I *697:A I *D sky130_fd_sc_hd__clkbuf_1
*CAP
1 A[0] 0.000869066
2 *697:A 0
3 *1:11 0.000869066
4 *1:11 *8:13 0
5 *1:11 *35:10 0
6 *1:11 *41:16 8.57361e-05
*RES
1 A[0] *1:11 33.3321 
2 *1:11 *697:A 23 
*END

*D_NET *2 0.00125869
*CONN
*P A[10] I
*I *708:A I *D sky130_fd_sc_hd__clkbuf_1
*CAP
1 A[10] 0.000611017
2 *708:A 0
3 *2:13 0.000611017
4 *2:13 *704:A 0
5 *2:13 *141:10 3.66555e-05
*RES
1 A[10] *2:13 27.9257 
2 *2:13 *708:A 23 
*END

*D_NET *3 0.00107392
*CONN
*P A[11] I
*I *719:A I *D sky130_fd_sc_hd__clkbuf_1
*CAP
1 A[11] 0.000525856
2 *719:A 0.000525856
3 *719:A *724:A 0
4 *719:A *152:14 2.22079e-05
*RES
1 A[11] *719:A 49.6829 
*END

*D_NET *4 0.00112244
*CONN
*P A[12] I
*I *724:A I *D sky130_fd_sc_hd__clkbuf_1
*CAP
1 A[12] 0.000561221
2 *724:A 0.000561221
3 *724:A *5:13 0
4 *719:A *724:A 0
*RES
1 A[12] *724:A 49.6829 
*END

*D_NET *5 0.00168693
*CONN
*P A[13] I
*I *725:A I *D sky130_fd_sc_hd__clkbuf_1
*CAP
1 A[13] 0.000792061
2 *725:A 0
3 *5:13 0.000792061
4 *5:13 *6:13 0
5 *5:13 *174:12 0.000102803
6 *5:13 *177:10 0
7 *5:13 *202:10 0
8 *724:A *5:13 0
*RES
1 A[13] *5:13 31.095 
2 *5:13 *725:A 23 
*END

*D_NET *6 0.00174496
*CONN
*P A[14] I
*I *726:A I *D sky130_fd_sc_hd__clkbuf_1
*CAP
1 A[14] 0.000631972
2 *726:A 0
3 *6:13 0.000631972
4 *6:13 *662:CLK 0.000249106
5 *6:13 *7:11 5.3304e-05
6 *6:13 *174:12 1.35999e-05
7 *6:13 *177:10 0.000165003
8 *5:13 *6:13 0
*RES
1 A[14] *6:13 30.1421 
2 *6:13 *726:A 23 
*END

*D_NET *7 0.00193557
*CONN
*P A[15] I
*I *727:A I *D sky130_fd_sc_hd__clkbuf_1
*CAP
1 A[15] 0.000875593
2 *727:A 0
3 *7:11 0.000875593
4 *7:11 *662:CLK 0
5 *7:11 *174:12 9.88743e-05
6 *7:11 *177:10 3.22051e-05
7 *6:13 *7:11 5.3304e-05
*RES
1 A[15] *7:11 33.8086 
2 *7:11 *727:A 23 
*END

*D_NET *8 0.00259795
*CONN
*P A[1] I
*I *728:A I *D sky130_fd_sc_hd__clkbuf_1
*CAP
1 A[1] 0.000800515
2 *728:A 0.000268076
3 *8:13 0.00106859
4 *728:A *9:13 0.000274207
5 *728:A *178:12 2.45889e-05
6 *8:13 *9:13 8.52401e-05
7 *8:13 *10:13 0
8 *8:13 *35:10 7.67346e-05
9 *1:11 *8:13 0
*RES
1 A[1] *8:13 44.4586 
2 *8:13 *728:A 42.9507 
*END

*D_NET *9 0.00164854
*CONN
*P A[2] I
*I *729:A I *D sky130_fd_sc_hd__clkbuf_1
*CAP
1 A[2] 0.000526318
2 *729:A 0
3 *9:13 0.000526318
4 *9:13 *10:13 0
5 *9:13 *178:12 0.000236456
6 *728:A *9:13 0.000274207
7 *8:13 *9:13 8.52401e-05
*RES
1 A[2] *9:13 28.4021 
2 *9:13 *729:A 23 
*END

*D_NET *10 0.00131488
*CONN
*P A[3] I
*I *698:A I *D sky130_fd_sc_hd__clkbuf_1
*CAP
1 A[3] 0.000657439
2 *698:A 0
3 *10:13 0.000657439
4 *8:13 *10:13 0
5 *9:13 *10:13 0
*RES
1 A[3] *10:13 28.4021 
2 *10:13 *698:A 23 
*END

*D_NET *11 0.00106389
*CONN
*P A[4] I
*I *699:A I *D sky130_fd_sc_hd__clkbuf_1
*CAP
1 A[4] 0.000531944
2 *699:A 0.000531944
3 *699:A *700:A 0
*RES
1 A[4] *699:A 49.6829 
*END

*D_NET *12 0.00112312
*CONN
*P A[5] I
*I *700:A I *D sky130_fd_sc_hd__clkbuf_1
*CAP
1 A[5] 0.00056156
2 *700:A 0.00056156
3 *700:A *701:A 0
4 *699:A *700:A 0
*RES
1 A[5] *700:A 49.6829 
*END

*D_NET *13 0.00102437
*CONN
*P A[6] I
*I *701:A I *D sky130_fd_sc_hd__clkbuf_1
*CAP
1 A[6] 0.000495622
2 *701:A 0.000495622
3 *701:A *702:A 0
4 *701:A *134:14 3.3123e-05
5 *700:A *701:A 0
*RES
1 A[6] *701:A 48.73 
*END

*D_NET *14 0.00113007
*CONN
*P A[7] I
*I *702:A I *D sky130_fd_sc_hd__clkbuf_1
*CAP
1 A[7] 0.000565036
2 *702:A 0.000565036
3 *701:A *702:A 0
*RES
1 A[7] *702:A 49.6829 
*END

*D_NET *15 0.00107528
*CONN
*P A[8] I
*I *703:A I *D sky130_fd_sc_hd__clkbuf_1
*CAP
1 A[8] 0.000519846
2 *703:A 0.000519846
3 *703:A *704:A 0
4 *703:A *137:14 3.55887e-05
*RES
1 A[8] *703:A 49.6829 
*END

*D_NET *16 0.00117281
*CONN
*P A[9] I
*I *704:A I *D sky130_fd_sc_hd__clkbuf_1
*CAP
1 A[9] 0.000571735
2 *704:A 0.000571735
3 *704:A *137:8 2.93431e-05
4 *704:A *137:14 0
5 *703:A *704:A 0
6 *2:13 *704:A 0
*RES
1 A[9] *704:A 49.6829 
*END

*D_NET *17 0.00204442
*CONN
*P B[0] I
*I *705:A I *D sky130_fd_sc_hd__clkbuf_1
*CAP
1 B[0] 0.000558241
2 *705:A 0
3 *17:11 0.000558241
4 *17:11 *713:A 0.00014196
5 *17:11 *731:A 7.82647e-05
6 *17:11 *36:10 0.000617611
7 *17:11 *43:16 9.01041e-05
*RES
1 B[0] *17:11 31.1364 
2 *17:11 *705:A 23 
*END

*D_NET *18 0.00116712
*CONN
*P B[10] I
*I *706:A I *D sky130_fd_sc_hd__clkbuf_1
*CAP
1 B[10] 0.000566435
2 *706:A 0.000566435
3 *706:A *707:A 0
4 *706:A *722:A 0
5 *706:A *139:10 3.42479e-05
*RES
1 B[10] *706:A 49.5171 
*END

*D_NET *19 0.00100551
*CONN
*P B[11] I
*I *707:A I *D sky130_fd_sc_hd__clkbuf_1
*CAP
1 B[11] 0.000502753
2 *707:A 0.000502753
3 *707:A *709:A 0
4 *706:A *707:A 0
*RES
1 B[11] *707:A 48.2743 
*END

*D_NET *20 0.000901682
*CONN
*P B[12] I
*I *709:A I *D sky130_fd_sc_hd__clkbuf_1
*CAP
1 B[12] 0.000450841
2 *709:A 0.000450841
3 *709:A *710:A 0
4 *707:A *709:A 0
*RES
1 B[12] *709:A 47.3214 
*END

*D_NET *21 0.00100841
*CONN
*P B[13] I
*I *710:A I *D sky130_fd_sc_hd__clkbuf_1
*CAP
1 B[13] 0.000495035
2 *710:A 0.000495035
3 *710:A *711:A 0
4 *710:A *143:8 1.83408e-05
5 *709:A *710:A 0
*RES
1 B[13] *710:A 48.2743 
*END

*D_NET *22 0.00089123
*CONN
*P B[14] I
*I *711:A I *D sky130_fd_sc_hd__clkbuf_1
*CAP
1 B[14] 0.000445615
2 *711:A 0.000445615
3 *711:A *23:11 0
4 *710:A *711:A 0
*RES
1 B[14] *711:A 47.4664 
*END

*D_NET *23 0.0015036
*CONN
*P B[15] I
*I *712:A I *D sky130_fd_sc_hd__clkbuf_1
*CAP
1 B[15] 0.000736964
2 *712:A 0
3 *23:11 0.000736964
4 *23:11 *144:12 1.73399e-05
5 *23:11 *145:10 1.23293e-05
6 *711:A *23:11 0
*RES
1 B[15] *23:11 29.2307 
2 *23:11 *712:A 23 
*END

*D_NET *24 0.00117865
*CONN
*P B[1] I
*I *713:A I *D sky130_fd_sc_hd__clkbuf_1
*CAP
1 B[1] 0.000458161
2 *713:A 0.000458161
3 *713:A *714:A 0
4 *713:A *731:A 0.00010018
5 *713:A *36:10 0
6 *713:A *146:8 1.41077e-05
7 *713:A *166:10 6.07611e-06
8 *17:11 *713:A 0.00014196
*RES
1 B[1] *713:A 48.2743 
*END

*D_NET *25 0.000892328
*CONN
*P B[2] I
*I *714:A I *D sky130_fd_sc_hd__clkbuf_1
*CAP
1 B[2] 0.000446164
2 *714:A 0.000446164
3 *714:A *715:A 0
4 *713:A *714:A 0
*RES
1 B[2] *714:A 47.4664 
*END

*D_NET *26 0.000961302
*CONN
*P B[3] I
*I *715:A I *D sky130_fd_sc_hd__clkbuf_1
*CAP
1 B[3] 0.000465959
2 *715:A 0.000465959
3 *715:A *716:A 0
4 *715:A *147:12 2.93845e-05
5 *714:A *715:A 0
*RES
1 B[3] *715:A 48.0879 
*END

*D_NET *27 0.00120589
*CONN
*P B[4] I
*I *716:A I *D sky130_fd_sc_hd__clkbuf_1
*CAP
1 B[4] 0.000512857
2 *716:A 0.000512857
3 *716:A *667:D 9.84794e-05
4 *716:A *28:9 0
5 *716:A *147:12 8.16952e-05
6 *715:A *716:A 0
*RES
1 B[4] *716:A 49.5171 
*END

*D_NET *28 0.00123319
*CONN
*P B[5] I
*I *717:A I *D sky130_fd_sc_hd__clkbuf_1
*CAP
1 B[5] 0.000579372
2 *717:A 0
3 *28:9 0.000579372
4 *28:9 *718:A 0
5 *28:9 *150:10 3.66555e-05
6 *28:9 *213:8 3.77959e-05
7 *716:A *28:9 0
*RES
1 B[5] *28:9 27.18 
2 *28:9 *717:A 23 
*END

*D_NET *29 0.00090229
*CONN
*P B[6] I
*I *718:A I *D sky130_fd_sc_hd__clkbuf_1
*CAP
1 B[6] 0.000449289
2 *718:A 0.000449289
3 *718:A *30:9 0
4 *718:A *150:10 3.7122e-06
5 *28:9 *718:A 0
*RES
1 B[6] *718:A 47.3214 
*END

*D_NET *30 0.00147429
*CONN
*P B[7] I
*I *720:A I *D sky130_fd_sc_hd__clkbuf_1
*CAP
1 B[7] 0.00059731
2 *720:A 0
3 *30:9 0.00059731
4 *30:9 *31:9 0
5 *30:9 *126:127 0.000107764
6 *30:9 *153:8 0.000171906
7 *718:A *30:9 0
*RES
1 B[7] *30:9 28.4436 
2 *30:9 *720:A 23 
*END

*D_NET *31 0.00123901
*CONN
*P B[8] I
*I *721:A I *D sky130_fd_sc_hd__clkbuf_1
*CAP
1 B[8] 0.000595083
2 *721:A 0
3 *31:9 0.000595083
4 *31:9 *722:A 0
5 *31:9 *154:10 1.94693e-05
6 *31:9 *222:8 2.93747e-05
7 *31:9 *222:10 0
8 *30:9 *31:9 0
*RES
1 B[8] *31:9 27.18 
2 *31:9 *721:A 23 
*END

*D_NET *32 0.0010141
*CONN
*P B[9] I
*I *722:A I *D sky130_fd_sc_hd__clkbuf_1
*CAP
1 B[9] 0.000497878
2 *722:A 0.000497878
3 *722:A *155:10 1.83408e-05
4 *722:A *222:10 0
5 *706:A *722:A 0
6 *31:9 *722:A 0
*RES
1 B[9] *722:A 48.2743 
*END

*D_NET *33 0.00691777
*CONN
*P CLK I
*I *689:A I *D sky130_fd_sc_hd__clkbuf_16
*CAP
1 CLK 0.00307509
2 *689:A 0.000119757
3 *33:21 0.00319484
4 *689:A *579:A 4.96185e-05
5 *689:A *579:B 5.79559e-05
6 *689:A *580:B 5.56279e-05
7 *689:A *108:6 0.000103194
8 *689:A *109:12 0.000119565
9 *689:A *228:18 2.69729e-05
10 *33:21 *188:12 0.000115145
*RES
1 CLK *33:21 47.7142 
2 *33:21 *689:A 27.1377 
*END

*D_NET *34 0.000515831
*CONN
*P Cin I
*I *723:A I *D sky130_fd_sc_hd__clkbuf_1
*CAP
1 Cin 0.00023144
2 *723:A 0.00023144
3 *723:A *129:121 5.2951e-05
*RES
1 Cin *723:A 47.4311 
*END

*D_NET *35 0.00179957
*CONN
*P Cout O
*I *730:X O *D sky130_fd_sc_hd__buf_1
*CAP
1 Cout 0.000246286
2 *730:X 0.000536657
3 *35:10 0.000782943
4 Cout S[15] 0
5 *35:10 *42:8 0
6 *35:10 *162:20 1.59094e-05
7 *35:10 *164:10 0.000141038
8 *35:10 *184:10 0
9 *1:11 *35:10 0
10 *8:13 *35:10 7.67346e-05
*RES
1 *730:X *35:10 48.5746 
2 *35:10 Cout 8.84373 
*END

*D_NET *36 0.00196923
*CONN
*P S[0] O
*I *731:X O *D sky130_fd_sc_hd__buf_1
*CAP
1 S[0] 0.000167191
2 *731:X 0.00050036
3 *36:10 0.000667551
4 S[0] S[1] 0
5 S[0] *43:16 0
6 *36:10 *731:A 1.65153e-05
7 *713:A *36:10 0
8 *17:11 *36:10 0.000617611
*RES
1 *731:X *36:10 47.4768 
2 *36:10 S[0] 8.58613 
*END

*D_NET *37 0.000794819
*CONN
*P S[10] O
*I *732:X O *D sky130_fd_sc_hd__buf_1
*CAP
1 S[10] 0.000121308
2 *732:X 0.000273123
3 *37:10 0.000394431
4 S[10] S[11] 0
5 S[10] S[9] 5.95675e-06
*RES
1 *732:X *37:10 42.0289 
2 *37:10 S[10] 8.4816 
*END

*D_NET *38 0.00073482
*CONN
*P S[11] O
*I *733:X O *D sky130_fd_sc_hd__buf_1
*CAP
1 S[11] 0.00036741
2 *733:X 0.00036741
3 S[11] S[12] 0
4 S[11] *39:16 0
5 S[11] *130:12 0
6 S[10] S[11] 0
*RES
1 *733:X S[11] 49.0231 
*END

*D_NET *39 0.00073014
*CONN
*P S[12] O
*I *734:X O *D sky130_fd_sc_hd__buf_1
*CAP
1 S[12] 4.64007e-05
2 *734:X 0.000314597
3 *39:16 0.000360997
4 S[12] S[13] 0
5 *39:16 S[13] 8.14539e-06
6 S[11] S[12] 0
7 S[11] *39:16 0
*RES
1 *734:X *39:16 49.9587 
2 *39:16 S[12] 0.199733 
*END

*D_NET *40 0.000636168
*CONN
*P S[13] O
*I *735:X O *D sky130_fd_sc_hd__buf_1
*CAP
1 S[13] 0.000289692
2 *735:X 0.000289692
3 S[13] S[14] 0
4 S[13] *41:16 0
5 S[13] *130:12 9.76487e-06
6 S[13] *164:10 3.88725e-05
7 S[12] S[13] 0
8 *39:16 S[13] 8.14539e-06
*RES
1 *735:X S[13] 48.4875 
*END

*D_NET *41 0.000753379
*CONN
*P S[14] O
*I *736:X O *D sky130_fd_sc_hd__buf_1
*CAP
1 S[14] 4.64007e-05
2 *736:X 0.000283348
3 *41:16 0.000329749
4 S[14] S[15] 0
5 *41:16 S[15] 8.14539e-06
6 S[13] S[14] 0
7 S[13] *41:16 0
8 *1:11 *41:16 8.57361e-05
*RES
1 *736:X *41:16 49.9587 
2 *41:16 S[14] 0.199733 
*END

*D_NET *42 0.00160907
*CONN
*P S[15] O
*I *737:X O *D sky130_fd_sc_hd__buf_1
*CAP
1 S[15] 0.000410591
2 *737:X 0.000287391
3 *42:8 0.000697981
4 *42:8 *130:12 5.18278e-05
5 *42:8 *165:18 1.27489e-05
6 *42:8 *184:10 0.000140387
7 Cout S[15] 0
8 S[14] S[15] 0
9 *35:10 *42:8 0
10 *41:16 S[15] 8.14539e-06
*RES
1 *737:X *42:8 44.6596 
2 *42:8 S[15] 9.27307 
*END

*D_NET *43 0.000703858
*CONN
*P S[1] O
*I *738:X O *D sky130_fd_sc_hd__buf_1
*CAP
1 S[1] 4.64007e-05
2 *738:X 0.000257967
3 *43:16 0.000304368
4 S[1] S[2] 0
5 *43:16 S[2] 5.01799e-06
6 S[0] S[1] 0
7 S[0] *43:16 0
8 *17:11 *43:16 9.01041e-05
*RES
1 *738:X *43:16 49.9587 
2 *43:16 S[1] 0.199733 
*END

*D_NET *44 0.00074223
*CONN
*P S[2] O
*I *739:X O *D sky130_fd_sc_hd__buf_1
*CAP
1 S[2] 4.63699e-05
2 *739:X 0.000319727
3 *44:16 0.000366097
4 S[2] S[3] 0
5 *44:16 S[3] 5.01799e-06
6 S[1] S[2] 0
7 *43:16 S[2] 5.01799e-06
*RES
1 *739:X *44:16 49.9587 
2 *44:16 S[2] 0.199733 
*END

*D_NET *45 0.00100087
*CONN
*P S[3] O
*I *740:X O *D sky130_fd_sc_hd__buf_1
*CAP
1 S[3] 0.000111162
2 *740:X 0.000349779
3 *45:10 0.000460941
4 S[3] S[4] 1.05236e-05
5 *45:10 S[4] 5.1614e-06
6 *45:10 *146:14 0
7 *45:10 *169:12 5.82853e-05
8 S[2] S[3] 0
9 *44:16 S[3] 5.01799e-06
*RES
1 *740:X *45:10 43.4582 
2 *45:10 S[3] 8.4816 
*END

*D_NET *46 0.000648833
*CONN
*P S[4] O
*I *741:X O *D sky130_fd_sc_hd__buf_1
*CAP
1 S[4] 0.000316574
2 *741:X 0.000316574
3 S[4] S[5] 0
4 S[4] *146:14 0
5 S[3] S[4] 1.05236e-05
6 *45:10 S[4] 5.1614e-06
*RES
1 *741:X S[4] 48.3188 
*END

*D_NET *47 0.000753777
*CONN
*P S[5] O
*I *742:X O *D sky130_fd_sc_hd__buf_1
*CAP
1 S[5] 0.000116144
2 *742:X 0.000258235
3 *47:10 0.000374379
4 S[5] S[6] 5.01799e-06
5 *47:10 *48:16 0
6 *47:10 *170:16 0
7 S[4] S[5] 0
*RES
1 *742:X *47:10 42.0289 
2 *47:10 S[5] 8.4816 
*END

*D_NET *48 0.000740999
*CONN
*P S[6] O
*I *743:X O *D sky130_fd_sc_hd__buf_1
*CAP
1 S[6] 4.63699e-05
2 *743:X 0.000315309
3 *48:16 0.000361679
4 S[6] S[7] 0
5 *48:16 S[7] 1.26232e-05
6 S[5] S[6] 5.01799e-06
7 *47:10 *48:16 0
*RES
1 *743:X *48:16 49.9587 
2 *48:16 S[6] 0.199733 
*END

*D_NET *49 0.000634926
*CONN
*P S[7] O
*I *744:X O *D sky130_fd_sc_hd__buf_1
*CAP
1 S[7] 0.000311151
2 *744:X 0.000311151
3 S[7] S[8] 0
4 S[6] S[7] 0
5 *48:16 S[7] 1.26232e-05
*RES
1 *744:X S[7] 49.8062 
*END

*D_NET *50 0.00051513
*CONN
*P S[8] O
*I *745:X O *D sky130_fd_sc_hd__buf_1
*CAP
1 S[8] 0.000252303
2 *745:X 0.000252303
3 S[8] S[9] 0
4 S[8] *51:16 1.05236e-05
5 S[8] *138:8 0
6 S[7] S[8] 0
*RES
1 *745:X S[8] 47.4311 
*END

*D_NET *51 0.000722756
*CONN
*P S[9] O
*I *746:X O *D sky130_fd_sc_hd__buf_1
*CAP
1 S[9] 4.33265e-05
2 *746:X 0.000309811
3 *51:16 0.000353138
4 S[10] S[9] 5.95675e-06
5 S[8] S[9] 0
6 S[8] *51:16 1.05236e-05
*RES
1 *746:X *51:16 49.9587 
2 *51:16 S[9] 0.199733 
*END

*D_NET *54 0.000842509
*CONN
*I *605:B1 I *D sky130_fd_sc_hd__a22oi_1
*I *602:A I *D sky130_fd_sc_hd__xnor2_1
*I *600:Y O *D sky130_fd_sc_hd__nor2_1
*CAP
1 *605:B1 3.63437e-05
2 *602:A 0
3 *600:Y 0.000134427
4 *54:16 0.000188423
5 *54:6 0.000359194
6 *54:6 *605:A1 2.24853e-05
7 *54:6 *605:B2 1.46205e-05
8 *54:6 *113:14 4.49877e-05
9 *54:6 *113:23 1.24376e-05
10 *54:16 *605:A1 1.59909e-05
11 *54:16 *192:8 1.35999e-05
*RES
1 *600:Y *54:6 25.5271 
2 *54:6 *54:16 33.3764 
3 *54:16 *602:A 23 
4 *54:6 *605:B1 23.8493 
*END

*D_NET *55 0.00156133
*CONN
*I *602:B I *D sky130_fd_sc_hd__xnor2_1
*I *601:X O *D sky130_fd_sc_hd__or2b_1
*CAP
1 *602:B 0
2 *601:X 0.000780663
3 *55:8 0.000780663
*RES
1 *601:X *55:8 34.6 
2 *55:8 *602:B 23 
*END

*D_NET *56 0.00137463
*CONN
*I *605:A2 I *D sky130_fd_sc_hd__a22oi_1
*I *604:B I *D sky130_fd_sc_hd__or2_1
*I *603:X O *D sky130_fd_sc_hd__o31a_1
*CAP
1 *605:A2 0.000221996
2 *604:B 0.000244776
3 *603:X 0
4 *56:6 0.000466772
5 *604:B *557:A 7.54792e-05
6 *604:B *557:B 5.79559e-05
7 *604:B *604:A 1.74164e-05
8 *604:B *611:B 1.7403e-05
9 *604:B *85:14 3.50862e-06
10 *604:B *86:6 7.9045e-05
11 *604:B *86:12 2.14486e-05
12 *604:B *129:72 5.61564e-05
13 *605:A2 *606:A 4.70495e-05
14 *605:A2 *85:14 2.14404e-05
15 *605:A2 *86:12 6.5117e-06
16 *605:A2 *86:23 1.57386e-05
17 *605:A2 *110:36 7.27694e-06
18 *605:A2 *192:8 1.46586e-05
*RES
1 *603:X *56:6 38 
2 *56:6 *604:B 43.8829 
3 *56:6 *605:A2 41.8373 
*END

*D_NET *57 0.00164558
*CONN
*I *605:B2 I *D sky130_fd_sc_hd__a22oi_1
*I *604:X O *D sky130_fd_sc_hd__or2_1
*CAP
1 *605:B2 6.80802e-05
2 *604:X 0.000279495
3 *57:10 0.000347575
4 *605:B2 *605:A1 0.000179473
5 *605:B2 *113:14 9.77405e-05
6 *605:B2 *113:23 2.02872e-05
7 *57:10 *556:B 0.000133649
8 *57:10 *604:A 5.56279e-05
9 *57:10 *112:6 5.56356e-05
10 *57:10 *112:23 6.97718e-05
11 *57:10 *129:72 1.08287e-05
12 *57:10 *227:10 0.000312797
13 *54:6 *605:B2 1.46205e-05
*RES
1 *604:X *57:10 43.945 
2 *57:10 *605:B2 40.0507 
*END

*D_NET *58 0.000825975
*CONN
*I *608:A I *D sky130_fd_sc_hd__xnor2_1
*I *606:Y O *D sky130_fd_sc_hd__nor2_1
*CAP
1 *608:A 0
2 *606:Y 0.000312659
3 *58:10 0.000312659
4 *58:10 *110:36 5.3304e-05
5 *58:10 *192:8 6.84216e-05
6 *58:10 *218:10 4.04496e-05
7 *58:10 *221:10 3.84822e-05
*RES
1 *606:Y *58:10 42.9093 
2 *58:10 *608:A 38 
*END

*D_NET *59 0.00160909
*CONN
*I *608:B I *D sky130_fd_sc_hd__xnor2_1
*I *607:X O *D sky130_fd_sc_hd__or2b_1
*CAP
1 *608:B 0
2 *607:X 0.000264951
3 *59:6 0.000264951
4 *59:6 *584:A2 0.000315862
5 *59:6 *603:A1 0.000230463
6 *59:6 *603:B1 0.00010286
7 *59:6 *85:14 0.000112643
8 *59:6 *110:12 0.000181794
9 *59:6 *110:36 5.79559e-05
10 *59:6 *111:25 2.19764e-05
11 *59:6 *112:23 5.56356e-05
*RES
1 *607:X *59:6 31.2443 
2 *59:6 *608:B 23 
*END

*D_NET *60 0.00348104
*CONN
*I *610:A2 I *D sky130_fd_sc_hd__o21a_1
*I *613:A2 I *D sky130_fd_sc_hd__o21ba_1
*I *614:A2 I *D sky130_fd_sc_hd__a21oi_1
*I *617:B1 I *D sky130_fd_sc_hd__a2bb2o_1
*I *609:X O *D sky130_fd_sc_hd__or2_1
*CAP
1 *610:A2 0
2 *613:A2 2.17404e-05
3 *614:A2 0.000138206
4 *617:B1 0.000137004
5 *609:X 0.000538432
6 *60:25 0.000308082
7 *60:8 0.00028514
8 *60:6 0.000538432
9 *614:A2 *613:B1_N 0.00010018
10 *614:A2 *614:B1 0.000146822
11 *614:A2 *87:22 0.000132051
12 *617:B1 *616:B 2.95526e-05
13 *617:B1 *617:A2_N 2.95423e-05
14 *617:B1 *65:6 5.82853e-05
15 *617:B1 *87:10 5.19819e-05
16 *617:B1 *87:22 8.87259e-05
17 *617:B1 *218:10 0.000278083
18 *60:6 *609:A 6.89359e-06
19 *60:6 *609:B 2.81549e-05
20 *60:6 *610:B1 0.000166459
21 *60:25 *613:A1 9.58714e-05
22 *60:25 *87:22 0.000171207
23 *60:25 *218:10 0.000130191
*RES
1 *609:X *60:6 29.815 
2 *60:6 *60:8 15 
3 *60:8 *617:B1 42.7643 
4 *60:8 *60:25 18.9564 
5 *60:25 *614:A2 27.5986 
6 *60:25 *613:A2 23.4971 
7 *60:6 *610:A2 23 
*END

*D_NET *61 0.00108382
*CONN
*I *612:A I *D sky130_fd_sc_hd__xnor2_1
*I *613:B1_N I *D sky130_fd_sc_hd__o21ba_1
*I *610:X O *D sky130_fd_sc_hd__o21a_1
*CAP
1 *612:A 0.00017588
2 *613:B1_N 6.54073e-05
3 *610:X 0.000112177
4 *61:8 0.000353464
5 *612:A *62:6 5.5792e-05
6 *612:A *129:72 5.41288e-05
7 *612:A *129:82 0
8 *612:A *218:10 5.68736e-05
9 *613:B1_N *87:22 5.70419e-05
10 *61:8 *218:10 5.28739e-05
11 *614:A2 *613:B1_N 0.00010018
*RES
1 *610:X *61:8 40.2579 
2 *61:8 *613:B1_N 39.7193 