*SPEF "ieee 1481-1999"
*DESIGN "ksa"
*DATE "11:57:20 Thursday October 23, 2025"
*VENDOR "The OpenROAD Project"
*PROGRAM "OpenROAD"
*VERSION "b16bda7e82721d10566ff7e2b68f1ff0be9f9e38"
*DESIGN_FLOW "NAME_SCOPE LOCAL" "PIN_CAP NONE"
*DIVIDER /
*DELIMITER :
*BUS_DELIMITER []
*T_UNIT 1 NS
*C_UNIT 1 PF
*R_UNIT 1 OHM
*L_UNIT 1 HENRY

*NAME_MAP
*1 A[0]
*2 A[10]
*3 A[11]
*4 A[12]
*5 A[13]
*6 A[14]
*7 A[15]
*8 A[1]
*9 A[2]
*10 A[3]
*11 A[4]
*12 A[5]
*13 A[6]
*14 A[7]
*15 A[8]
*16 A[9]
*17 B[0]
*18 B[10]
*19 B[11]
*20 B[12]
*21 B[13]
*22 B[14]
*23 B[15]
*24 B[1]
*25 B[2]
*26 B[3]
*27 B[4]
*28 B[5]
*29 B[6]
*30 B[7]
*31 B[8]
*32 B[9]
*33 CLK
*34 Cin
*35 Cout
*36 S[0]
*37 S[10]
*38 S[11]
*39 S[12]
*40 S[13]
*41 S[14]
*42 S[15]
*43 S[1]
*44 S[2]
*45 S[3]
*46 S[4]
*47 S[5]
*48 S[6]
*49 S[7]
*50 S[8]
*51 S[9]
*54 _000_
*55 _001_
*56 _002_
*57 _003_
*58 _004_
*59 _005_
*60 _006_
*61 _007_
*62 _008_
*63 _009_
*64 _010_
*65 _011_
*66 _012_
*67 _013_
*68 _014_
*69 _015_
*70 _016_
*71 _017_
*72 _018_
*73 _019_
*74 _020_
*75 _021_
*76 _022_
*77 _023_
*78 _024_
*79 _025_
*80 _026_
*81 _027_
*82 _028_
*83 _029_
*84 _030_
*85 _031_
*86 _032_
*87 _033_
*88 _034_
*89 _035_
*90 _036_
*91 _037_
*92 _038_
*93 _039_
*94 _040_
*95 _041_
*96 _042_
*97 _043_
*98 _044_
*99 _045_
*100 _046_
*101 _047_
*102 _048_
*103 _049_
*104 _050_
*105 _051_
*106 _052_
*107 _053_
*108 _054_
*109 _055_
*110 _056_
*111 _057_
*112 _058_
*113 _059_
*114 _060_
*115 _061_
*116 _062_
*117 _063_
*118 _064_
*119 _065_
*120 _066_
*121 _067_
*122 _068_
*123 _069_
*124 _070_
*125 _071_
*126 _072_
*127 _073_
*128 _074_
*129 _075_
*130 _076_
*131 _077_
*132 _078_
*133 _079_
*134 _080_
*135 _081_
*136 _082_
*137 _083_
*138 _084_
*139 _085_
*140 _086_
*141 _087_
*142 _088_
*143 _089_
*144 _090_
*145 _091_
*146 _092_
*147 _093_
*148 _094_
*149 _095_
*150 _096_
*151 _097_
*152 _098_
*153 _099_
*154 _100_
*155 _101_
*156 _102_
*157 _103_
*158 _104_
*159 _105_
*160 _106_
*161 _107_
*162 _108_
*163 _109_
*164 _110_
*165 _111_
*166 _112_
*167 _113_
*168 _114_
*169 _115_
*170 _116_
*171 _117_
*172 _118_
*173 _119_
*174 _120_
*175 _121_
*176 _122_
*177 _123_
*178 _124_
*179 _125_
*180 _126_
*181 _127_
*182 clknet_0_CLK
*183 clknet_2_0__leaf_CLK
*184 clknet_2_1__leaf_CLK
*185 clknet_2_2__leaf_CLK
*186 clknet_2_3__leaf_CLK
*187 net1
*188 net10
*189 net11
*190 net12
*191 net13
*192 net14
*193 net15
*194 net16
*195 net17
*196 net18
*197 net19
*198 net2
*199 net20
*200 net21
*201 net22
*202 net23
*203 net24
*204 net25
*205 net26
*206 net27
*207 net28
*208 net29
*209 net3
*210 net30
*211 net31
*212 net32
*213 net33
*214 net34
*215 net35
*216 net36
*217 net37
*218 net38
*219 net39
*220 net4
*221 net40
*222 net41
*223 net42
*224 net43
*225 net44
*226 net45
*227 net46
*228 net47
*229 net48
*230 net49
*231 net5
*232 net50
*233 net6
*234 net7
*235 net8
*236 net9
*237 x1\.A
*238 x1\.B
*239 x10\.A
*240 x10\.B
*241 x11\.A
*242 x11\.B
*243 x12\.A
*244 x12\.B
*245 x13\.A
*246 x13\.B
*247 x14\.A
*248 x14\.B
*249 x15\.A
*250 x15\.B
*251 x16\.A
*252 x16\.B
*253 x2\.A
*254 x2\.B
*255 x3\.A
*256 x3\.B
*257 x4\.A
*258 x4\.B
*259 x5\.A
*260 x5\.B
*261 x6\.A
*262 x6\.B
*263 x66\.G
*264 x66\.G1
*265 x7\.A
*266 x7\.B
*267 x8\.A
*268 x8\.B
*269 x82\.Si
*270 x83\.Si
*271 x84\.Si
*272 x85\.Si
*273 x86\.Si
*274 x87\.Si
*275 x88\.Si
*276 x89\.Si
*277 x9\.A
*278 x9\.B
*279 x90\.Si
*280 x91\.Si
*281 x92\.Si
*282 x93\.Si
*283 x94\.Si
*284 x95\.Si
*285 x96\.Si
*286 x97\.Si
*287 FILLER_0_0_109
*288 FILLER_0_0_113
*289 FILLER_0_0_120
*290 FILLER_0_0_131
*291 FILLER_0_0_139
*292 FILLER_0_0_144
*293 FILLER_0_0_27
*294 FILLER_0_0_3
*295 FILLER_0_0_35
*296 FILLER_0_0_39
*297 FILLER_0_0_43
*298 FILLER_0_0_54
*299 FILLER_0_0_57
*300 FILLER_0_0_61
*301 FILLER_0_0_65
*302 FILLER_0_0_76
*303 FILLER_0_0_88
*304 FILLER_0_0_94
*305 FILLER_0_0_98
*306 FILLER_0_10_101
*307 FILLER_0_10_113
*308 FILLER_0_10_121
*309 FILLER_0_10_138
*310 FILLER_0_10_141
*311 FILLER_0_10_27
*312 FILLER_0_10_29
*313 FILLER_0_10_3
*314 FILLER_0_10_39
*315 FILLER_0_10_43
*316 FILLER_0_10_60
*317 FILLER_0_10_68
*318 FILLER_0_10_85
*319 FILLER_0_11_111
*320 FILLER_0_11_113
*321 FILLER_0_11_125
*322 FILLER_0_11_149
*323 FILLER_0_11_17
*324 FILLER_0_11_36
*325 FILLER_0_11_48
*326 FILLER_0_11_57
*327 FILLER_0_11_69
*328 FILLER_0_11_77
*329 FILLER_0_11_83
*330 FILLER_0_11_87
*331 FILLER_0_11_9
*332 FILLER_0_11_99
*333 FILLER_0_12_117
*334 FILLER_0_12_129
*335 FILLER_0_12_137
*336 FILLER_0_12_141
*337 FILLER_0_12_21
*338 FILLER_0_12_27
*339 FILLER_0_12_29
*340 FILLER_0_12_3
*341 FILLER_0_12_41
*342 FILLER_0_12_53
*343 FILLER_0_12_65
*344 FILLER_0_12_73
*345 FILLER_0_12_81
*346 FILLER_0_12_85
*347 FILLER_0_13_120
*348 FILLER_0_13_132
*349 FILLER_0_13_150
*350 FILLER_0_13_21
*351 FILLER_0_13_3
*352 FILLER_0_13_33
*353 FILLER_0_13_45
*354 FILLER_0_13_53
*355 FILLER_0_13_57
*356 FILLER_0_13_75
*357 FILLER_0_13_97
*358 FILLER_0_14_107
*359 FILLER_0_14_121
*360 FILLER_0_14_133
*361 FILLER_0_14_139
*362 FILLER_0_14_141
*363 FILLER_0_14_21
*364 FILLER_0_14_27
*365 FILLER_0_14_29
*366 FILLER_0_14_3
*367 FILLER_0_14_41
*368 FILLER_0_14_47
*369 FILLER_0_14_67
*370 FILLER_0_14_71
*371 FILLER_0_14_76
*372 FILLER_0_14_98
*373 FILLER_0_15_101
*374 FILLER_0_15_109
*375 FILLER_0_15_128
*376 FILLER_0_15_140
*377 FILLER_0_15_152
*378 FILLER_0_15_21
*379 FILLER_0_15_29
*380 FILLER_0_15_3
*381 FILLER_0_15_45
*382 FILLER_0_15_50
*383 FILLER_0_15_64
*384 FILLER_0_16_111
*385 FILLER_0_16_117
*386 FILLER_0_16_132
*387 FILLER_0_16_148
*388 FILLER_0_16_15
*389 FILLER_0_16_152
*390 FILLER_0_16_23
*391 FILLER_0_16_27
*392 FILLER_0_16_29
*393 FILLER_0_16_35
*394 FILLER_0_16_62
*395 FILLER_0_16_74
*396 FILLER_0_16_82
*397 FILLER_0_16_85
*398 FILLER_0_16_9
*399 FILLER_0_16_99
*400 FILLER_0_17_105
*401 FILLER_0_17_111
*402 FILLER_0_17_133
*403 FILLER_0_17_147
*404 FILLER_0_17_21
*405 FILLER_0_17_29
*406 FILLER_0_17_3
*407 FILLER_0_17_41
*408 FILLER_0_17_55
*409 FILLER_0_17_63
*410 FILLER_0_17_75
*411 FILLER_0_17_83
*412 FILLER_0_17_93
*413 FILLER_0_18_104
*414 FILLER_0_18_116
*415 FILLER_0_18_121
*416 FILLER_0_18_129
*417 FILLER_0_18_139
*418 FILLER_0_18_148
*419 FILLER_0_18_152
*420 FILLER_0_18_18
*421 FILLER_0_18_26
*422 FILLER_0_18_29
*423 FILLER_0_18_37
*424 FILLER_0_18_6
*425 FILLER_0_18_70
*426 FILLER_0_18_76
*427 FILLER_0_19_111
*428 FILLER_0_19_113
*429 FILLER_0_19_125
*430 FILLER_0_19_147
*431 FILLER_0_19_21
*432 FILLER_0_19_3
*433 FILLER_0_19_33
*434 FILLER_0_19_41
*435 FILLER_0_1_110
*436 FILLER_0_1_129
*437 FILLER_0_1_141
*438 FILLER_0_1_3
*439 FILLER_0_1_30
*440 FILLER_0_1_41
*441 FILLER_0_1_53
*442 FILLER_0_1_57
*443 FILLER_0_1_74
*444 FILLER_0_1_98
*445 FILLER_0_20_102
*446 FILLER_0_20_114
*447 FILLER_0_20_132
*448 FILLER_0_20_148
*449 FILLER_0_20_152
*450 FILLER_0_20_18
*451 FILLER_0_20_26
*452 FILLER_0_20_29
*453 FILLER_0_20_37
*454 FILLER_0_20_59
*455 FILLER_0_20_6
*456 FILLER_0_20_71
*457 FILLER_0_20_75
*458 FILLER_0_20_83
*459 FILLER_0_20_85
*460 FILLER_0_21_103
*461 FILLER_0_21_111
*462 FILLER_0_21_113
*463 FILLER_0_21_125
*464 FILLER_0_21_147
*465 FILLER_0_21_21
*466 FILLER_0_21_3
*467 FILLER_0_21_33
*468 FILLER_0_21_51
*469 FILLER_0_21_55
*470 FILLER_0_21_57
*471 FILLER_0_21_69
*472 FILLER_0_21_79
*473 FILLER_0_21_83
*474 FILLER_0_21_91
*475 FILLER_0_22_100
*476 FILLER_0_22_118
*477 FILLER_0_22_141
*478 FILLER_0_22_149
*479 FILLER_0_22_27
*480 FILLER_0_22_29
*481 FILLER_0_22_41
*482 FILLER_0_22_49
*483 FILLER_0_22_61
*484 FILLER_0_22_78
*485 FILLER_0_22_9
*486 FILLER_0_22_92
*487 FILLER_0_23_110
*488 FILLER_0_23_145
*489 FILLER_0_23_35
*490 FILLER_0_23_39
*491 FILLER_0_23_57
*492 FILLER_0_23_61
*493 FILLER_0_24_109
*494 FILLER_0_24_121
*495 FILLER_0_24_141
*496 FILLER_0_24_26
*497 FILLER_0_24_29
*498 FILLER_0_24_41
*499 FILLER_0_24_6
*500 FILLER_0_24_65
*501 FILLER_0_24_77
*502 FILLER_0_24_83
*503 FILLER_0_24_85
*504 FILLER_0_24_97
*505 FILLER_0_25_109
*506 FILLER_0_25_113
*507 FILLER_0_25_120
*508 FILLER_0_25_131
*509 FILLER_0_25_139
*510 FILLER_0_25_144
*511 FILLER_0_25_27
*512 FILLER_0_25_3
*513 FILLER_0_25_35
*514 FILLER_0_25_39
*515 FILLER_0_25_43
*516 FILLER_0_25_54
*517 FILLER_0_25_57
*518 FILLER_0_25_61
*519 FILLER_0_25_65
*520 FILLER_0_25_76
*521 FILLER_0_25_88
*522 FILLER_0_25_94
*523 FILLER_0_25_98
*524 FILLER_0_2_122
*525 FILLER_0_2_134
*526 FILLER_0_2_141
*527 FILLER_0_2_24
*528 FILLER_0_2_49
*529 FILLER_0_2_6
*530 FILLER_0_2_66
*531 FILLER_0_2_83
*532 FILLER_0_2_85
*533 FILLER_0_2_89
*534 FILLER_0_3_105
*535 FILLER_0_3_111
*536 FILLER_0_3_129
*537 FILLER_0_3_141
*538 FILLER_0_3_3
*539 FILLER_0_3_40
*540 FILLER_0_3_57
*541 FILLER_0_3_66
*542 FILLER_0_3_74
*543 FILLER_0_3_93
*544 FILLER_0_4_104
*545 FILLER_0_4_116
*546 FILLER_0_4_128
*547 FILLER_0_4_141
*548 FILLER_0_4_15
*549 FILLER_0_4_27
*550 FILLER_0_4_29
*551 FILLER_0_4_3
*552 FILLER_0_4_48
*553 FILLER_0_4_56
*554 FILLER_0_4_61
*555 FILLER_0_4_73
*556 FILLER_0_4_81
*557 FILLER_0_4_92
*558 FILLER_0_5_105
*559 FILLER_0_5_111
*560 FILLER_0_5_113
*561 FILLER_0_5_125
*562 FILLER_0_5_133
*563 FILLER_0_5_150
*564 FILLER_0_5_18
*565 FILLER_0_5_26
*566 FILLER_0_5_38
*567 FILLER_0_5_48
*568 FILLER_0_5_6
*569 FILLER_0_5_67
*570 FILLER_0_5_81
*571 FILLER_0_5_93
*572 FILLER_0_6_108
*573 FILLER_0_6_120
*574 FILLER_0_6_132
*575 FILLER_0_6_141
*576 FILLER_0_6_21
*577 FILLER_0_6_27
*578 FILLER_0_6_29
*579 FILLER_0_6_3
*580 FILLER_0_6_41
*581 FILLER_0_6_56
*582 FILLER_0_6_67
*583 FILLER_0_6_76
*584 FILLER_0_6_83
*585 FILLER_0_6_85
*586 FILLER_0_7_113
*587 FILLER_0_7_125
*588 FILLER_0_7_137
*589 FILLER_0_7_149
*590 FILLER_0_7_21
*591 FILLER_0_7_3
*592 FILLER_0_7_38
*593 FILLER_0_7_54
*594 FILLER_0_7_57
*595 FILLER_0_7_67
*596 FILLER_0_8_103
*597 FILLER_0_8_115
*598 FILLER_0_8_127
*599 FILLER_0_8_139
*600 FILLER_0_8_141
*601 FILLER_0_8_26
*602 FILLER_0_8_6
*603 FILLER_0_8_83
*604 FILLER_0_8_85
*605 FILLER_0_8_89
*606 FILLER_0_9_101
*607 FILLER_0_9_109
*608 FILLER_0_9_113
*609 FILLER_0_9_125
*610 FILLER_0_9_133
*611 FILLER_0_9_150
*612 FILLER_0_9_18
*613 FILLER_0_9_50
*614 FILLER_0_9_6
*615 FILLER_0_9_62
*616 FILLER_0_9_80
*617 PHY_EDGE_ROW_0_Left_26
*618 PHY_EDGE_ROW_0_Right_0
*619 PHY_EDGE_ROW_10_Left_36
*620 PHY_EDGE_ROW_10_Right_10
*621 PHY_EDGE_ROW_11_Left_37
*622 PHY_EDGE_ROW_11_Right_11
*623 PHY_EDGE_ROW_12_Left_38
*624 PHY_EDGE_ROW_12_Right_12
*625 PHY_EDGE_ROW_13_Left_39
*626 PHY_EDGE_ROW_13_Right_13
*627 PHY_EDGE_ROW_14_Left_40
*628 PHY_EDGE_ROW_14_Right_14
*629 PHY_EDGE_ROW_15_Left_41
*630 PHY_EDGE_ROW_15_Right_15
*631 PHY_EDGE_ROW_16_Left_42
*632 PHY_EDGE_ROW_16_Right_16
*633 PHY_EDGE_ROW_17_Left_43
*634 PHY_EDGE_ROW_17_Right_17
*635 PHY_EDGE_ROW_18_Left_44
*636 PHY_EDGE_ROW_18_Right_18
*637 PHY_EDGE_ROW_19_Left_45
*638 PHY_EDGE_ROW_19_Right_19
*639 PHY_EDGE_ROW_1_Left_27
*640 PHY_EDGE_ROW_1_Right_1
*641 PHY_EDGE_ROW_20_Left_46
*642 PHY_EDGE_ROW_20_Right_20
*643 PHY_EDGE_ROW_21_Left_47
*644 PHY_EDGE_ROW_21_Right_21
*645 PHY_EDGE_ROW_22_Left_48
*646 PHY_EDGE_ROW_22_Right_22
*647 PHY_EDGE_ROW_23_Left_49
*648 PHY_EDGE_ROW_23_Right_23
*649 PHY_EDGE_ROW_24_Left_50
*650 PHY_EDGE_ROW_24_Right_24
*651 PHY_EDGE_ROW_25_Left_51
*652 PHY_EDGE_ROW_25_Right_25
*653 PHY_EDGE_ROW_2_Left_28
*654 PHY_EDGE_ROW_2_Right_2
*655 PHY_EDGE_ROW_3_Left_29
*656 PHY_EDGE_ROW_3_Right_3
*657 PHY_EDGE_ROW_4_Left_30
*658 PHY_EDGE_ROW_4_Right_4
*659 PHY_EDGE_ROW_5_Left_31
*660 PHY_EDGE_ROW_5_Right_5
*661 PHY_EDGE_ROW_6_Left_32
*662 PHY_EDGE_ROW_6_Right_6
*663 PHY_EDGE_ROW_7_Left_33
*664 PHY_EDGE_ROW_7_Right_7
*665 PHY_EDGE_ROW_8_Left_34
*666 PHY_EDGE_ROW_8_Right_8
*667 PHY_EDGE_ROW_9_Left_35
*668 PHY_EDGE_ROW_9_Right_9
*669 TAP_TAPCELL_ROW_0_52
*670 TAP_TAPCELL_ROW_0_53
*671 TAP_TAPCELL_ROW_0_54
*672 TAP_TAPCELL_ROW_0_55
*673 TAP_TAPCELL_ROW_0_56
*674 TAP_TAPCELL_ROW_10_79
*675 TAP_TAPCELL_ROW_10_80
*676 TAP_TAPCELL_ROW_10_81
*677 TAP_TAPCELL_ROW_11_82
*678 TAP_TAPCELL_ROW_11_83
*679 TAP_TAPCELL_ROW_12_84
*680 TAP_TAPCELL_ROW_12_85
*681 TAP_TAPCELL_ROW_12_86
*682 TAP_TAPCELL_ROW_13_87
*683 TAP_TAPCELL_ROW_13_88
*684 TAP_TAPCELL_ROW_14_89
*685 TAP_TAPCELL_ROW_14_90
*686 TAP_TAPCELL_ROW_14_91
*687 TAP_TAPCELL_ROW_15_92
*688 TAP_TAPCELL_ROW_15_93
*689 TAP_TAPCELL_ROW_16_94
*690 TAP_TAPCELL_ROW_16_95
*691 TAP_TAPCELL_ROW_16_96
*692 TAP_TAPCELL_ROW_17_97
*693 TAP_TAPCELL_ROW_17_98
*694 TAP_TAPCELL_ROW_18_100
*695 TAP_TAPCELL_ROW_18_101
*696 TAP_TAPCELL_ROW_18_99
*697 TAP_TAPCELL_ROW_19_102
*698 TAP_TAPCELL_ROW_19_103
*699 TAP_TAPCELL_ROW_1_57
*700 TAP_TAPCELL_ROW_1_58
*701 TAP_TAPCELL_ROW_20_104
*702 TAP_TAPCELL_ROW_20_105
*703 TAP_TAPCELL_ROW_20_106
*704 TAP_TAPCELL_ROW_21_107
*705 TAP_TAPCELL_ROW_21_108
*706 TAP_TAPCELL_ROW_22_109
*707 TAP_TAPCELL_ROW_22_110
*708 TAP_TAPCELL_ROW_22_111
*709 TAP_TAPCELL_ROW_23_112
*710 TAP_TAPCELL_ROW_23_113
*711 TAP_TAPCELL_ROW_24_114
*712 TAP_TAPCELL_ROW_24_115
*713 TAP_TAPCELL_ROW_24_116
*714 TAP_TAPCELL_ROW_25_117
*715 TAP_TAPCELL_ROW_25_118
*716 TAP_TAPCELL_ROW_25_119
*717 TAP_TAPCELL_ROW_25_120
*718 TAP_TAPCELL_ROW_25_121
*719 TAP_TAPCELL_ROW_2_59
*720 TAP_TAPCELL_ROW_2_60
*721 TAP_TAPCELL_ROW_2_61
*722 TAP_TAPCELL_ROW_3_62
*723 TAP_TAPCELL_ROW_3_63
*724 TAP_TAPCELL_ROW_4_64
*725 TAP_TAPCELL_ROW_4_65
*726 TAP_TAPCELL_ROW_4_66
*727 TAP_TAPCELL_ROW_5_67
*728 TAP_TAPCELL_ROW_5_68
*729 TAP_TAPCELL_ROW_6_69
*730 TAP_TAPCELL_ROW_6_70
*731 TAP_TAPCELL_ROW_6_71
*732 TAP_TAPCELL_ROW_7_72
*733 TAP_TAPCELL_ROW_7_73
*734 TAP_TAPCELL_ROW_8_74
*735 TAP_TAPCELL_ROW_8_75
*736 TAP_TAPCELL_ROW_8_76
*737 TAP_TAPCELL_ROW_9_77
*738 TAP_TAPCELL_ROW_9_78
*739 _128_
*740 _129_
*741 _130_
*742 _131_
*743 _132_
*744 _133_
*745 _134_
*746 _135_
*747 _136_
*748 _137_
*749 _138_
*750 _139_
*751 _140_
*752 _141_
*753 _142_
*754 _143_
*755 _144_
*756 _145_
*757 _146_
*758 _147_
*759 _148_
*760 _149_
*761 _150_
*762 _151_
*763 _152_
*764 _153_
*765 _154_
*766 _155_
*767 _156_
*768 _157_
*769 _158_
*770 _159_
*771 _160_
*772 _161_
*773 _162_
*774 _163_
*775 _164_
*776 _165_
*777 _166_
*778 _167_
*779 _168_
*780 _169_
*781 _170_
*782 _171_
*783 _172_
*784 _173_
*785 _174_
*786 _175_
*787 _176_
*788 _177_
*789 _178_
*790 _179_
*791 _180_
*792 _181_
*793 _182_
*794 _183_
*795 _184_
*796 _185_
*797 _186_
*798 _187_
*799 _188_
*800 _189_
*801 _190_
*802 _191_
*803 _192_
*804 _193_
*805 _194_
*806 _195_
*807 _196_
*808 _197_
*809 _198_
*810 _199_
*811 _200_
*812 _201_
*813 _202_
*814 _203_
*815 _204_
*816 _205_
*817 _206_
*818 _207_
*819 _208_
*820 _209_
*821 _210_
*822 _211_
*823 _212_
*824 _213_
*825 _214_
*826 _215_
*827 _216_
*828 _217_
*829 _218_
*830 _219_
*831 _220_
*832 _221_
*833 _222_
*834 _223_
*835 _224_
*836 _225_
*837 _226_
*838 _227_
*839 _228_
*840 _229_
*841 _230_
*842 _231_
*843 _232_
*844 _233_
*845 _234_
*846 _235_
*847 _236_
*848 _237_
*849 _238_
*850 _239_
*851 _240_
*852 _241_
*853 _242_
*854 _243_
*855 _244_
*856 _245_
*857 _246_
*858 _247_
*859 _248_
*860 _249_
*861 _250_
*862 _251_
*863 _252_
*864 _253_
*865 _254_
*866 _255_
*867 _256_
*868 _257_
*869 _258_
*870 _259_
*871 _260_
*872 _261_
*873 _262_
*874 _263_
*875 _264_
*876 _265_
*877 _266_
*878 _267_
*879 _268_
*880 _269_
*881 _270_
*882 _271_
*883 _272_
*884 _273_
*885 _274_
*886 _275_
*887 _276_
*888 _277_
*889 _278_
*890 _279_
*891 _280_
*892 _281_
*893 _282_
*894 _283_
*895 _284_
*896 _285_
*897 _286_
*898 _287_
*899 _288_
*900 _289_
*901 _290_
*902 _291_
*903 _292_
*904 _293_
*905 _294_
*906 _295_
*907 _296_
*908 _297_
*909 _298_
*910 _299_
*911 _300_
*912 _301_
*913 _302_
*914 _303_
*915 _304_
*916 _305_
*917 _306_
*918 _307_
*919 _308_
*920 _309_
*921 _310_
*922 _311_
*923 _312_
*924 _313_
*925 _314_
*926 _315_
*927 _316_
*928 _317_
*929 _318_
*930 _319_
*931 _320_
*932 _321_
*933 _322_
*934 clkbuf_0_CLK
*935 clkbuf_2_0__f_CLK
*936 clkbuf_2_1__f_CLK
*937 clkbuf_2_2__f_CLK
*938 clkbuf_2_3__f_CLK
*939 clkload0
*940 clkload1
*941 clkload2
*942 input1
*943 input10
*944 input11
*945 input12
*946 input13
*947 input14
*948 input15
*949 input16
*950 input17
*951 input18
*952 input19
*953 input2
*954 input20
*955 input21
*956 input22
*957 input23
*958 input24
*959 input25
*960 input26
*961 input27
*962 input28
*963 input29
*964 input3
*965 input30
*966 input31
*967 input32
*968 input33
*969 input4
*970 input5
*971 input6
*972 input7
*973 input8
*974 input9
*975 output34
*976 output35
*977 output36
*978 output37
*979 output38
*980 output39
*981 output40
*982 output41
*983 output42
*984 output43
*985 output44
*986 output45
*987 output46
*988 output47
*989 output48
*990 output49
*991 output50

*PORTS
A[0] I
A[10] I
A[11] I
A[12] I
A[13] I
A[14] I
A[15] I
A[1] I
A[2] I
A[3] I
A[4] I
A[5] I
A[6] I
A[7] I
A[8] I
A[9] I
B[0] I
B[10] I
B[11] I
B[12] I
B[13] I
B[14] I
B[15] I
B[1] I
B[2] I
B[3] I
B[4] I
B[5] I
B[6] I
B[7] I
B[8] I
B[9] I
CLK I
Cin I
Cout O
S[0] O
S[10] O
S[11] O
S[12] O
S[13] O
S[14] O
S[15] O
S[1] O
S[2] O
S[3] O
S[4] O
S[5] O
S[6] O
S[7] O
S[8] O
S[9] O

*D_NET *1 0.00145491
*CONN
*P A[0] I
*I *942:A I *D sky130_fd_sc_hd__clkbuf_1
*CAP
1 A[0] 0.000727454
2 *942:A 0.000727454
3 *942:A S[14] 0
4 *942:A *901:CLK 0
*RES
1 A[0] *942:A 16.08 
*END

*D_NET *2 0.00100517
*CONN
*P A[10] I
*I *953:A I *D sky130_fd_sc_hd__clkbuf_1
*CAP
1 A[10] 0.000500759
2 *953:A 0.000500759
3 *953:A *911:D 3.64998e-06
4 *953:A *964:A 0
*RES
1 A[10] *953:A 12.27 
*END

*D_NET *3 0.000994658
*CONN
*P A[11] I
*I *964:A I *D sky130_fd_sc_hd__clkbuf_1
*CAP
1 A[11] 0.000488137
2 *964:A 0.000488137
3 *964:A *912:D 1.83847e-05
4 *953:A *964:A 0
*RES
1 A[11] *964:A 12.06 
*END

*D_NET *4 0.000894546
*CONN
*P A[12] I
*I *969:A I *D sky130_fd_sc_hd__clkbuf_1
*CAP
1 A[12] 0.000447273
2 *969:A 0.000447273
*RES
1 A[12] *969:A 11.37 
*END

*D_NET *5 0.00109143
*CONN
*P A[13] I
*I *970:A I *D sky130_fd_sc_hd__clkbuf_1
*CAP
1 A[13] 0.000545713
2 *970:A 0.000545713
*RES
1 A[13] *970:A 12.75 
*END

*D_NET *6 0.00106849
*CONN
*P A[14] I
*I *971:A I *D sky130_fd_sc_hd__clkbuf_1
*CAP
1 A[14] 0.000488482
2 *971:A 0.000488482
3 *971:A *915:D 4.9253e-06
4 *971:A *972:A 8.65961e-05
*RES
1 A[14] *971:A 12.27 
*END

*D_NET *7 0.00142103
*CONN
*P A[15] I
*I *972:A I *D sky130_fd_sc_hd__clkbuf_1
*CAP
1 A[15] 0.000660552
2 *972:A 0.000660552
3 *972:A *915:D 1.33293e-05
4 *971:A *972:A 8.65961e-05
*RES
1 A[15] *972:A 14.925 
*END

*D_NET *8 0.00133159
*CONN
*P A[1] I
*I *973:A I *D sky130_fd_sc_hd__clkbuf_1
*CAP
1 A[1] 0.000515472
2 *973:A 0.000515472
3 *973:A S[14] 1.28996e-05
4 *973:A *901:CLK 0.000208779
5 *973:A *901:D 7.89689e-05
*RES
1 A[1] *973:A 13.665 
*END

*D_NET *9 0.00117642
*CONN
*P A[2] I
*I *974:A I *D sky130_fd_sc_hd__clkbuf_1
*CAP
1 A[2] 0.000551009
2 *974:A 0.000551009
3 *974:A Cout 0
4 *974:A *265:10 7.44006e-05
*RES
1 A[2] *974:A 13.095 
*END

*D_NET *10 0.00103376
*CONN
*P A[3] I
*I *943:A I *D sky130_fd_sc_hd__clkbuf_1
*CAP
1 A[3] 0.000480178
2 *943:A 0.000480178
3 *943:A Cout 0
4 *943:A S[15] 4.65594e-05
5 *943:A *265:10 2.68464e-05
*RES
1 A[3] *943:A 12.27 
*END

*D_NET *11 0.000897352
*CONN
*P A[4] I
*I *944:A I *D sky130_fd_sc_hd__clkbuf_1
*CAP
1 A[4] 0.000448676
2 *944:A 0.000448676
3 *944:A S[15] 0
4 *944:A *982:A 0
*RES
1 A[4] *944:A 11.37 
*END

*D_NET *12 0.000894546
*CONN
*P A[5] I
*I *945:A I *D sky130_fd_sc_hd__clkbuf_1
*CAP
1 A[5] 0.000447273
2 *945:A 0.000447273
*RES
1 A[5] *945:A 11.37 
*END

*D_NET *13 0.000899761
*CONN
*P A[6] I
*I *946:A I *D sky130_fd_sc_hd__clkbuf_1
*CAP
1 A[6] 0.00044988
2 *946:A 0.00044988
*RES
1 A[6] *946:A 11.37 
*END

*D_NET *14 0.000992279
*CONN
*P A[7] I
*I *947:A I *D sky130_fd_sc_hd__clkbuf_1
*CAP
1 A[7] 0.000496139
2 *947:A 0.000496139
*RES
1 A[7] *947:A 12.06 
*END

*D_NET *15 0.00103805
*CONN
*P A[8] I
*I *948:A I *D sky130_fd_sc_hd__clkbuf_1
*CAP
1 A[8] 0.000519027
2 *948:A 0.000519027
*RES
1 A[8] *948:A 12.405 
*END

*D_NET *16 0.000899796
*CONN
*P A[9] I
*I *949:A I *D sky130_fd_sc_hd__clkbuf_1
*CAP
1 A[9] 0.000449898
2 *949:A 0.000449898
*RES
1 A[9] *949:A 11.37 
*END

*D_NET *17 0.00308147
*CONN
*P B[0] I
*I *950:A I *D sky130_fd_sc_hd__clkbuf_1
*CAP
1 B[0] 0.00107492
2 *950:A 0.00107492
3 *950:A *884:CLK 4.82863e-05
4 *950:A *884:D 0.000585416
5 *950:A *976:A 0.000251324
6 *950:A *984:A 4.66108e-05
*RES
1 B[0] *950:A 23.61 
*END

*D_NET *18 0.000893152
*CONN
*P B[10] I
*I *951:A I *D sky130_fd_sc_hd__clkbuf_1
*CAP
1 B[10] 0.000433153
2 *951:A 0.000433153
3 *951:A *926:D 2.68464e-05
4 *951:A *952:A 0
*RES
1 B[10] *951:A 11.25 
*END

*D_NET *19 0.000882419
*CONN
*P B[11] I
*I *952:A I *D sky130_fd_sc_hd__clkbuf_1
*CAP
1 B[11] 0.000432017
2 *952:A 0.000432017
3 *952:A *928:D 1.83847e-05
4 *951:A *952:A 0
*RES
1 B[11] *952:A 11.04 
*END

*D_NET *20 0.00087992
*CONN
*P B[12] I
*I *954:A I *D sky130_fd_sc_hd__clkbuf_1
*CAP
1 B[12] 0.000430768
2 *954:A 0.000430768
3 *954:A *929:D 1.83847e-05
*RES
1 B[12] *954:A 11.04 
*END

*D_NET *21 0.000985734
*CONN
*P B[13] I
*I *955:A I *D sky130_fd_sc_hd__clkbuf_1
*CAP
1 B[13] 0.000492867
2 *955:A 0.000492867
*RES
1 B[13] *955:A 11.73 
*END

*D_NET *22 0.000950416
*CONN
*P B[14] I
*I *956:A I *D sky130_fd_sc_hd__clkbuf_1
*CAP
1 B[14] 0.000431075
2 *956:A 0.000431075
3 *956:A *957:A 8.8266e-05
*RES
1 B[14] *956:A 11.145 
*END

*D_NET *23 0.00130608
*CONN
*P B[15] I
*I *957:A I *D sky130_fd_sc_hd__clkbuf_1
*CAP
1 B[15] 0.000608908
2 *957:A 0.000608908
3 *956:A *957:A 8.8266e-05
*RES
1 B[15] *957:A 13.905 
*END

*D_NET *24 0.00226395
*CONN
*P B[1] I
*I *958:A I *D sky130_fd_sc_hd__clkbuf_1
*CAP
1 B[1] 0.000693204
2 *958:A 0.000693204
3 *958:A *917:CLK 5.83121e-06
4 *958:A *917:D 0.000335641
5 *958:A *918:D 0.000110007
6 *958:A *919:D 0.000193662
7 *958:A *959:A 0.000232403
*RES
1 B[1] *958:A 17.94 
*END

*D_NET *25 0.00129507
*CONN
*P B[2] I
*I *959:A I *D sky130_fd_sc_hd__clkbuf_1
*CAP
1 B[2] 0.000422747
2 *959:A 0.000422747
3 *959:A S[1] 0
4 *959:A *917:D 0.000196669
5 *959:A *266:18 2.05056e-05
6 *958:A *959:A 0.000232403
*RES
1 B[2] *959:A 12.075 
*END

*D_NET *26 0.000918127
*CONN
*P B[3] I
*I *960:A I *D sky130_fd_sc_hd__clkbuf_1
*CAP
1 B[3] 0.000374043
2 *960:A 0.000374043
3 *960:A S[0] 0.000142517
4 *960:A S[1] 0
5 *960:A *919:D 2.75229e-05
*RES
1 B[3] *960:A 11.25 
*END

*D_NET *27 0.000785136
*CONN
*P B[4] I
*I *961:A I *D sky130_fd_sc_hd__clkbuf_1
*CAP
1 B[4] 0.000392568
2 *961:A 0.000392568
3 *961:A S[0] 0
4 *961:A *976:A 0
*RES
1 B[4] *961:A 10.35 
*END

*D_NET *28 0.000786235
*CONN
*P B[5] I
*I *962:A I *D sky130_fd_sc_hd__clkbuf_1
*CAP
1 B[5] 0.000393118
2 *962:A 0.000393118
*RES
1 B[5] *962:A 10.35 
*END

*D_NET *29 0.00079203
*CONN
*P B[6] I
*I *963:A I *D sky130_fd_sc_hd__clkbuf_1
*CAP
1 B[6] 0.00039419
2 *963:A 0.00039419
3 *963:A *922:D 3.64998e-06
*RES
1 B[6] *963:A 10.35 
*END

*D_NET *30 0.000794837
*CONN
*P B[7] I
*I *965:A I *D sky130_fd_sc_hd__clkbuf_1
*CAP
1 B[7] 0.000383657
2 *965:A 0.000383657
3 *965:A *923:D 2.75229e-05
*RES
1 B[7] *965:A 10.35 
*END

*D_NET *31 0.000832444
*CONN
*P B[8] I
*I *966:A I *D sky130_fd_sc_hd__clkbuf_1
*CAP
1 B[8] 0.000414397
2 *966:A 0.000414397
3 *966:A *924:D 3.64998e-06
*RES
1 B[8] *966:A 10.695 
*END

*D_NET *32 0.000791596
*CONN
*P B[9] I
*I *967:A I *D sky130_fd_sc_hd__clkbuf_1
*CAP
1 B[9] 0.000395798
2 *967:A 0.000395798
*RES
1 B[9] *967:A 10.35 
*END

*D_NET *33 0.00770999
*CONN
*P CLK I
*I *934:A I *D sky130_fd_sc_hd__clkbuf_16
*CAP
1 CLK 0.00347528
2 *934:A 0.00347528
3 *934:A *929:D 0.000253687
4 *934:A *246:14 0.000355235
5 *934:A *248:8 0.000104095
6 *934:A *253:30 1.21593e-05
7 *934:A *253:40 2.15257e-05
8 *934:A *254:52 1.27269e-05
*RES
1 CLK *934:A 12.4554 
*END

*D_NET *34 0.000640419
*CONN
*P Cin I
*I *968:A I *D sky130_fd_sc_hd__clkbuf_1
*CAP
1 Cin 0.000254131
2 *968:A 0.000254131
3 *968:A *933:D 0.000106973
4 *968:A *241:10 2.51835e-05
*RES
1 Cin *968:A 6.37677 
*END

*D_NET *35 0.002076
*CONN
*P Cout O
*I *975:X O *D sky130_fd_sc_hd__buf_1
*CAP
1 Cout 0.001038
2 *975:X 0.001038
3 Cout S[15] 0
4 *943:A Cout 0
5 *974:A Cout 0
*RES
1 *975:X Cout 12.7004 
*END

*D_NET *36 0.00228205
*CONN
*P S[0] O
*I *976:X O *D sky130_fd_sc_hd__buf_1
*CAP
1 S[0] 0.00106977
2 *976:X 0.00106977
3 S[0] S[1] 0
4 *960:A S[0] 0.000142517
5 *961:A S[0] 0
*RES
1 *976:X S[0] 12.6565 
*END

*D_NET *37 0.000555086
*CONN
*P S[10] O
*I *977:X O *D sky130_fd_sc_hd__buf_1
*CAP
1 S[10] 0.000268683
2 *977:X 0.000268683
3 S[10] S[11] 0
4 S[10] S[9] 0
5 S[10] *977:A 1.77198e-05
*RES
1 *977:X S[10] 5.7485 
*END

*D_NET *38 0.000521216
*CONN
*P S[11] O
*I *978:X O *D sky130_fd_sc_hd__buf_1
*CAP
1 S[11] 0.00024498
2 *978:X 0.00024498
3 S[11] S[12] 0
4 S[11] *978:A 3.12569e-05
5 S[10] S[11] 0
*RES
1 *978:X S[11] 5.35677 
*END

*D_NET *39 0.000541669
*CONN
*P S[12] O
*I *979:X O *D sky130_fd_sc_hd__buf_1
*CAP
1 S[12] 0.000261405
2 *979:X 0.000261405
3 S[12] S[13] 0
4 S[12] *979:A 1.88597e-05
5 S[11] S[12] 0
*RES
1 *979:X S[12] 5.7485 
*END

*D_NET *40 0.000558445
*CONN
*P S[13] O
*I *980:X O *D sky130_fd_sc_hd__buf_1
*CAP
1 S[13] 0.000264858
2 *980:X 0.000264858
3 S[13] S[14] 2.87301e-05
4 S[12] S[13] 0
*RES
1 *980:X S[13] 5.7485 
*END

*D_NET *41 0.00137413
*CONN
*P S[14] O
*I *981:X O *D sky130_fd_sc_hd__buf_1
*CAP
1 S[14] 0.000579113
2 *981:X 0.000579113
3 S[14] S[15] 0
4 S[14] *901:CLK 0.000105253
5 S[14] *980:A 6.90254e-05
6 S[13] S[14] 2.87301e-05
7 *942:A S[14] 0
8 *973:A S[14] 1.28996e-05
*RES
1 *981:X S[14] 10.29 
*END

*D_NET *42 0.00213769
*CONN
*P S[15] O
*I *982:X O *D sky130_fd_sc_hd__buf_1
*CAP
1 S[15] 0.00104556
2 *982:X 0.00104556
3 Cout S[15] 0
4 S[14] S[15] 0
5 *943:A S[15] 4.65594e-05
6 *944:A S[15] 0
*RES
1 *982:X S[15] 9.0865 
*END

*D_NET *43 0.00224785
*CONN
*P S[1] O
*I *983:X O *D sky130_fd_sc_hd__buf_1
*CAP
1 S[1] 0.00100311
2 *983:X 0.00100311
3 S[1] S[2] 0
4 S[1] *884:D 8.52883e-05
5 S[1] *266:18 0.000156341
6 S[0] S[1] 0
7 *959:A S[1] 0
8 *960:A S[1] 0
*RES
1 *983:X S[1] 11.5004 
*END

*D_NET *44 0.00173412
*CONN
*P S[2] O
*I *984:X O *D sky130_fd_sc_hd__buf_1
*CAP
1 S[2] 0.000860514
2 *984:X 0.000860514
3 S[2] S[3] 0
4 S[2] *918:D 2.99518e-06
5 S[2] *266:18 1.00941e-05
6 S[1] S[2] 0
*RES
1 *984:X S[2] 6.0577 
*END

*D_NET *45 0.000557361
*CONN
*P S[3] O
*I *985:X O *D sky130_fd_sc_hd__buf_1
*CAP
1 S[3] 0.00026982
2 *985:X 0.00026982
3 S[3] S[4] 0
4 S[3] *985:A 1.77198e-05
5 S[2] S[3] 0
*RES
1 *985:X S[3] 5.7485 
*END

*D_NET *46 0.000621094
*CONN
*P S[4] O
*I *986:X O *D sky130_fd_sc_hd__buf_1
*CAP
1 S[4] 0.000310547
2 *986:X 0.000310547
3 S[4] S[5] 0
4 S[3] S[4] 0
*RES
1 *986:X S[4] 7.0893 
*END

*D_NET *47 0.00073053
*CONN
*P S[5] O
*I *987:X O *D sky130_fd_sc_hd__buf_1
*CAP
1 S[5] 0.000351918
2 *987:X 0.000351918
3 S[5] S[6] 0
4 S[5] *987:A 2.66935e-05
5 S[4] S[5] 0
*RES
1 *987:X S[5] 7.2785 
*END

*D_NET *48 0.000621094
*CONN
*P S[6] O
*I *988:X O *D sky130_fd_sc_hd__buf_1
*CAP
1 S[6] 0.000310547
2 *988:X 0.000310547
3 S[6] S[7] 0
4 S[5] S[6] 0
*RES
1 *988:X S[6] 7.0893 
*END

*D_NET *49 0.000664431
*CONN
*P S[7] O
*I *989:X O *D sky130_fd_sc_hd__buf_1
*CAP
1 S[7] 0.000311846
2 *989:X 0.000311846
3 S[7] S[8] 0
4 S[7] *988:A 4.07391e-05
5 S[6] S[7] 0
*RES
1 *989:X S[7] 5.27657 
*END

*D_NET *50 0.00082507
*CONN
*P S[8] O
*I *990:X O *D sky130_fd_sc_hd__buf_1
*CAP
1 S[8] 0.000347557
2 *990:X 0.000347557
3 S[8] S[9] 0
4 S[8] *990:A 0.000129957
5 S[7] S[8] 0
*RES
1 *990:X S[8] 7.7885 
*END

*D_NET *51 0.000850919
*CONN
*P S[9] O
*I *991:X O *D sky130_fd_sc_hd__buf_1
*CAP
1 S[9] 0.000406856
2 *991:X 0.000406856
3 S[9] *991:A 3.72081e-05
4 S[10] S[9] 0
5 S[8] S[9] 0
*RES
1 *991:X S[9] 7.06157 
*END

*D_NET *54 0.00311534
*CONN
*I *876:A I *D sky130_fd_sc_hd__or2_1
*I *814:A I *D sky130_fd_sc_hd__nor2_1
*I *807:A I *D sky130_fd_sc_hd__or3_1
*I *808:A1 I *D sky130_fd_sc_hd__o32a_1
*I *789:X O *D sky130_fd_sc_hd__or2_1
*CAP
1 *876:A 0.000455983
2 *814:A 9.88613e-06
3 *807:A 0
4 *808:A1 3.93126e-05
5 *789:X 0
6 *54:12 0.000238008
7 *54:8 0.000227111
8 *54:6 0.000474513
9 *808:A1 *807:C 0.000194921
10 *808:A1 *808:A2 1.43622e-05
11 *808:A1 *808:A3 8.41384e-05
12 *808:A1 *811:B1 8.53011e-05
13 *814:A *815:B 4.77807e-05
14 *814:A *160:10 4.77807e-05
15 *876:A *815:A 6.95248e-05
16 *876:A *817:A 0.00018622
17 *876:A *875:C1 4.40028e-05
18 *876:A *881:A 5.6458e-05
19 *876:A *881:B 7.08554e-05
20 *876:A *89:12 5.97306e-05
21 *876:A *122:18 0.000269107
22 *876:A *126:6 4.77757e-05
23 *876:A *161:35 2.51672e-05
24 *54:8 *815:B 4.09654e-05
25 *54:8 *89:12 2.68111e-05
26 *54:12 *790:A 2.69443e-06
27 *54:12 *811:B1 9.47962e-06
28 *54:12 *815:B 2.98644e-05
29 *54:12 *817:A 9.99391e-05
30 *54:12 *89:12 6.83917e-05
31 *54:12 *163:37 8.9257e-05
*RES
1 *789:X *54:6 3.6 
2 *54:6 *54:8 0.615 
3 *54:8 *54:12 6.185 
4 *54:12 *808:A1 3.43 
5 *54:12 *807:A 1.6 
6 *54:8 *814:A 4.05 
7 *54:6 *876:A 16.825 
*END

*D_NET *55 0.00288773
*CONN
*I *826:A1 I *D sky130_fd_sc_hd__o21a_1
*I *808:A2 I *D sky130_fd_sc_hd__o32a_1
*I *807:B I *D sky130_fd_sc_hd__or3_1
*I *833:B1 I *D sky130_fd_sc_hd__a211o_1
*I *829:A I *D sky130_fd_sc_hd__or3_1
*I *790:X O *D sky130_fd_sc_hd__or2_1
*CAP
1 *826:A1 6.70478e-05
2 *808:A2 0.000110753
3 *807:B 0
4 *833:B1 1.68577e-05
5 *829:A 0.000102009
6 *790:X 3.37871e-05
7 *55:38 0.000176461
8 *55:18 0.000277708
9 *55:10 0.000303126
10 *55:8 0.000179411
11 *808:A2 *808:A3 0.000121039
12 *808:A2 *811:B1 0.000173733
13 *808:A2 *72:10 0.000157944
14 *826:A1 *826:A2 6.05046e-05
15 *829:A *842:B1 2.39856e-05
16 *829:A *56:16 0.000134938
17 *829:A *156:28 0.00030615
18 *833:B1 *56:16 9.53428e-06
19 *55:8 *163:37 4.77769e-05
20 *55:10 *790:A 6.06958e-05
21 *55:10 *826:A2 3.91251e-05
22 *55:10 *877:A3 1.04061e-05
23 *55:18 *782:B1 0
24 *55:18 *790:A 0.0001715
25 *55:18 *796:A1 4.82863e-05
26 *55:18 *796:A2 1.19928e-05
27 *55:18 *826:A2 5.02126e-06
28 *55:18 *877:A3 2.69443e-06
29 *55:18 *56:16 2.30292e-05
30 *55:18 *156:16 8.53113e-06
31 *55:18 *156:28 7.49327e-05
32 *55:18 *253:40 7.5037e-05
33 *55:38 *811:B1 3.93467e-05
34 *808:A1 *808:A2 1.43622e-05
*RES
1 *790:X *55:8 4.05 
2 *55:8 *55:10 1.38 
3 *55:10 *55:18 5.645 
4 *55:18 *829:A 4.825 
5 *55:18 *833:B1 1.96 
6 *55:10 *55:38 2.795 
7 *55:38 *807:B 1.6 
8 *55:38 *808:A2 4.825 
9 *55:8 *826:A1 4.98 
*END

*D_NET *56 0.00179281
*CONN
*I *829:B I *D sky130_fd_sc_hd__or3_1
*I *796:A1 I *D sky130_fd_sc_hd__o21a_1
*I *833:C1 I *D sky130_fd_sc_hd__a211o_1
*I *791:X O *D sky130_fd_sc_hd__or2_1
*CAP
1 *829:B 5.86057e-05